<?xml version="1.0" encoding="UTF-8"?>

<!-- generated on 2021-09-20 12:14:35 by Eclipse SUMO duarouter Version 1.10.0
<configuration xmlns:xsi="http://www.w3.org/2001/XMLSchema-instance" xsi:noNamespaceSchemaLocation="http://sumo.dlr.de/xsd/duarouterConfiguration.xsd">

    <input>
        <net-file value="../Netzmodell2.net.xml"/>
        <route-files value="../flows_SUMOV2.2.rou.xml"/>
    </input>

    <output>
        <output-file value="duarouter.rou.xml"/>
        <alternatives-output value="duarouter.rou.alt.xml"/>
    </output>

</configuration>
-->

<routes xmlns:xsi="http://www.w3.org/2001/XMLSchema-instance" xsi:noNamespaceSchemaLocation="http://sumo.dlr.de/xsd/routes_file.xsd">
    <person id="person0.0" depart="54000.00" color="green">
        <walk edges="-535519490#0 535519490#0"/>
    </person>
    <vType id="pkw" length="5.00" minGap="1.00" maxSpeed="50.00" accel="0.8" decel="4.5" sigma="0.5"/>
    <vehicle id="pkwflow1.0" type="pkw" depart="54000.00" color="blue">
        <route edges="-311298662#0 -782714966#1 -782714966#0 -502325084#3 -502325084#1 -502325084#0 -25970859#1 -25970859#0 -880140407 -4895001#0 -4935286#3 -4935286#2 -4935286#1 -4935286#0"/>
    </vehicle>
    <vehicle id="pkwflow10.0" type="pkw" depart="54000.00" color="red">
        <route edges="-gneE4 gneE3 -gneE2 -74277990 -7365262 111677668#0 111677668#3 111677668#4 -26943536#1"/>
    </vehicle>
    <vehicle id="pkwflow11.0" type="pkw" depart="54000.00" color="red">
        <route edges="-gneE4 gneE3 -gneE2 -74277990 -7365262 111677668#0 111677668#3 111677668#4 111677669#0 111677669#1 111677669#2 111677669#3 111677669#4 111677669#5 876057376 876343449#0 876343449#1 876343449#2 876343449#3 876343449#4 803012921#0 803012921#1 803012921#2 803012921#4 876343451#0 876343451#1 876343451#2 876343451#3 814303496#0 814303496#1 876343448#0 876343448#1 876343448#2 876343448#3 876343448#5 814061747#0 814061747#1 814061747#2 814061747#3 814061747#5 814061747#6 814061747#7 814061747#8 814061747#9 814061747#10 gneE0 828195561#0 828195561#1 782710712 -28298231 -311298682#0 -311298658 -835443464 -311298662#1 -311298662#0 -782714966#1 -782714966#0 -502325084#3 -502325084#1 -502325084#0 -25970859#1 -25970859#0 -880140407"/>
    </vehicle>
    <vehicle id="pkwflow12.0" type="pkw" depart="54000.00" color="red">
        <route edges="-gneE4 gneE3 -gneE2 -74277990 -7365262 111677668#0 111677668#3 111677668#4 111677669#0 111677669#1 111677669#2 111677669#3 111677669#4 111677669#5 876057376 876343449#0 876343449#1 876343449#2 876343449#3 876343449#4 803012921#0 803012921#1 803012921#2 803012921#4 876343451#0 876343451#1 876343451#2 876343451#3 814303496#0 814303496#1 876343448#0 876343448#1 876343448#2 876343448#3 876343448#5 814061747#0 814061747#1 814061747#2 814061747#3 814061747#5 814061747#6 814061747#7 814061747#8 814061747#9"/>
    </vehicle>
    <vehicle id="pkwflow13.0" type="pkw" depart="54000.00" color="red">
        <route edges="-gneE4 gneE3 -gneE2 -74277990 -7365262 111677668#0 111677668#3 111677668#4 111677669#0 111677669#1 111677669#2 111677669#3 111677669#4 111677669#5 876057376 876343449#0 876343449#1 876343449#2 876343449#3 876343449#4 803012921#0 803012921#1 803012921#2 803012921#4 876343451#0 876343451#1 876343451#2 876343451#3 814303496#0 814303496#1 876343448#0 876343448#1 876343448#2 876343448#3 876343448#5 814061747#0 814061747#1 814061747#2 814061747#3 814061747#5 814061747#6 814061747#7 814061747#8 814061747#9 814061747#10 gneE0 828195561#0 828195561#1 782710712 27149242 -27149243"/>
    </vehicle>
    <vehicle id="pkwflow14.0" type="pkw" depart="54000.00" color="red">
        <route edges="-gneE4 gneE3 -gneE2 -74277990 -7365262 111677668#0 111677668#3 111677668#4 111677669#0 111677669#1 111677669#2 111677669#3 111677669#4 111677669#5 876057376 876343449#0 876343449#1 876343449#2 876343449#3 876343449#4 803012921#0 803012921#1 803012921#2 803012921#4 876343451#0 876343451#1 876343451#2 876343451#3 814303496#0 814303496#1 876343448#0 876343448#1 876343448#2 876343448#3 876343448#5 814061747#0 814061747#1 814061747#2 814061747#3 814061747#5 814061747#6 814061747#7 814061747#8 814061747#9 814061747#10 gneE0 828195561#0 828195561#1 782710712 -28298231 -311298682#0 -311298658 -274763815#1 -274763815#0 -274763813#5 -274763813#4 -274763813#3 -274763813#2"/>
    </vehicle>
    <vehicle id="pkwflow15.0" type="pkw" depart="54000.00" color="red">
        <route edges="-gneE4 gneE3 -gneE2 -74277990 -7365262 -835445203 -24337240#7 -24337240#6 -24337240#4 -24337240#3 -24337240#2 -24337240#1 -24337240#0 -120682114#3 -120682114#2 -120682114#1 -111681903#3 -111681903#2 -111681903#1 -111681903#0 -782714971#4 -782714971#3 -782714971#2 -782714971#1 -782714971#0 -783907721#2 -783907721#1"/>
    </vehicle>
    <vehicle id="pkwflow16.0" type="pkw" depart="54000.00" color="red">
        <route edges="-gneE4 gneE3 -gneE2 -74277990 -7365262 -835445203 -24337240#7 -24337240#6 -24337240#4 -24337240#3 -24337240#2 -24337240#1 -24337240#0 -120682114#3 -120682114#2 -120682114#1 -111681903#3 -111681903#2 -111681903#1 -111681903#0 -782714971#4 -782714971#3 -782714971#2 -782714971#1 -782714971#0 -783907721#2 -783907721#1 -783907721#0 -880137009#1 -880137009#0 747448014 880137010 37628709#0 37628709#1 205590836#2 255274250"/>
    </vehicle>
    <vehicle id="pkwflow17.0" type="pkw" depart="54000.00" color="red">
        <route edges="-gneE4 gneE3 -gneE2 -74277990 -7365262 -835445203 -24337240#7 -24337240#6 -24337240#4 -24337240#3 -24337240#2 -24337240#1 -24337240#0 -120682114#3 -120682114#2 -120682114#1 -111681903#3 -111681903#2 -111681903#1 -111681903#0 -782714971#4 -782714971#3 -782714971#2 -782714971#1 -782714971#0 -783907721#2 -783907721#1 -783907721#0 -880137009#1 -880137009#0 747448014 782714970 58621262#0 58621262#1 880137009#0 880137009#1 783907721#0 783907721#1 783907721#2 782714971#0 782714971#1 4970256#0 4970256#1 4970256#3 4970256#4 -28468732#1"/>
    </vehicle>
    <vehicle id="pkwflow18.0" type="pkw" depart="54000.00" color="red">
        <route edges="-gneE4 gneE3 -gneE2 -74277990 -7365262 -835445203 -24337240#7 -24337240#6 -24337240#4 -24337240#3 -24337240#2 -24337240#1 -24337240#0 -120682114#3 -120682114#2 -120682114#1 -111681903#3 -111681903#2 -111681903#1 -111681903#0 -782714971#4 -782714971#3 -782714971#2 -782714971#1 -782714971#0 -783907721#2 -783907721#1 -783907721#0 -880137009#1 -880137009#0 747448014 782714970 -311298665 -535519490#1 -535519490#0 -4895001#0 -4935286#3 -4935286#2 -4935286#1 -4935286#0"/>
    </vehicle>
    <vehicle id="pkwflow19.0" type="pkw" depart="54000.00" color="red">
        <route edges="-24337240#7 -24337240#6 -24337240#4 -24337240#3 -24337240#2 -24337240#1 -24337240#0 -120682114#3 -120682114#2 -120682114#1 -111681903#3 -111681903#2 -111681903#1 -111681903#0 -782714971#4 -782714971#3 -782714971#2 -782714971#1 -782714971#0 -783907721#2 -783907721#1 -783907721#0 -880137009#1 -880137009#0 747448014 880137010 37628709#0 37628709#1 205590836#2"/>
    </vehicle>
    <vehicle id="pkwflow2.0" type="pkw" depart="54000.00" color="blue">
        <route edges="-835443464 -311298662#1 -311298662#0 -782714966#1 -782714966#0 -502325084#3 -502325084#1 -502325084#0 -25970859#1 -25970859#0 -880140407 535519490#0 535519490#1 311298665 58621262#0 28468730#0 28468730#1 62826731 28468732#0 28468732#1 4970256#5 4970256#6 4970256#7 4894992#1 4894992#2 4894992#3 627579930#0 -4894996#1 -4894996#0"/>
    </vehicle>
    <vehicle id="pkwflow20.0" type="pkw" depart="54000.00" color="red">
        <route edges="-24337240#7 -24337240#6 -24337240#4 -24337240#3 -24337240#2 -24337240#1 -24337240#0 -120682114#3 -120682114#2 -120682114#1 -111681903#3 -111681903#2 -111681903#1 -111681903#0 -782714971#4 -782714971#3 -782714971#2 -782714971#1 -782714971#0 -783907721#2 -783907721#1 -783907721#0 -880137009#1 -880137009#0 747448014 782714970 58621262#0 58621262#1 880137009#0 880137009#1 783907721#0 783907721#1 783907721#2 782714971#0 782714971#1 782714971#2 782714971#3 782714971#4 -40009020#7 -40009020#6 -40009020#5 -40009020#4 -40009020#3 -40009020#0 -627579930#1 -4894996#1"/>
    </vehicle>
    <vehicle id="pkwflow21.0" type="pkw" depart="54000.00" color="red">
        <route edges="-24337240#7 -24337240#6 -24337240#4 -24337240#3 -24337240#2 -24337240#1 -24337240#0 -120682114#3 -120682114#2 -120682114#1 -111681903#3 -111681903#2 -111681903#1 -111681903#0 -782714971#4 -782714971#3 -782714971#2 -782714971#1 -782714971#0 -783907721#2 -783907721#1 -783907721#0 -880137009#1 -880137009#0 747448014 782714970 -311298665 -535519490#1 -535519490#0 -4895001#0 -4935286#3 -4935286#2 -4935286#1 -4935286#0"/>
    </vehicle>
    <vehicle id="pkwflow22.0" type="pkw" depart="54000.00" color="red">
        <route edges="-24337240#7 -24337240#6 -24337240#4 -24337240#3 -24337240#2 -24337240#1 -24337240#0 -120682114#3 -120682114#2 -120682114#1 -111681903#3 -111681903#2 -111681903#1 -111681903#0 -782714971#4 -782714971#3 -782714971#2 -782714971#1 -782714971#0 -783907721#2 -783907721#1 -783907721#0 -880137009#1 -880137009#0 747448014 782714970 -311298665 -535519490#1 -535519490#0 880140407 25970859#0 25970859#1 502325084#0 502325084#1 502325084#3 782714966#0 782714966#1 311298662#0 311298662#1 835443464 311298658"/>
    </vehicle>
    <vehicle id="pkwflow23.0" type="pkw" depart="54000.00" color="red">
        <route edges="783907721#2 782714971#0 782714971#1 782714971#2 782714971#3 782714971#4 111681903#0 111681903#1 111681903#2 111681903#3 120682114#1 120682114#2 120682114#3 24337240#0 24337240#1 24337240#2 24337240#3 24337240#4 24337240#5 24337240#7 835445203 7365262 74277990 gneE2 -gneE3"/>
    </vehicle>
    <vehicle id="pkwflow24.0" type="pkw" depart="54000.00" color="red">
        <route edges="783907721#2 782714971#0 782714971#1 782714971#2 782714971#3 782714971#4 111681903#0 111681903#1 111681903#2 111681903#3 120682114#1 120682114#2 120682114#3 24337240#0 24337240#1 24337240#2 24337240#3 24337240#4 24337240#5 24337240#7 835445203 111677668#0 111677668#3 111677668#4 -26943536#1"/>
    </vehicle>
    <vehicle id="pkwflow25.0" type="pkw" depart="54000.00" color="red">
        <route edges="783907721#2 782714971#0 782714971#1 782714971#2 782714971#3 782714971#4 111681903#0 111681903#1 111681903#2 111681903#3 120682114#1 120682114#2 120682114#3 24337240#0 24337240#1 24337240#2 24337240#3 24337240#4 24337240#5 24337240#7 835445203 111677668#0 111677668#3 111677668#4 111677669#0 111677669#1 111677669#2 111677669#3 111677669#4 111677669#5 876057376 876343449#0 876343449#1 876343449#2 876343449#3 876343449#4 803012921#0 803012921#1 803012921#2 803012921#4 876343451#0 876343451#1 876343451#2 876343451#3 814303496#0 814303496#1 876343448#0 876343448#1 876343448#2 876343448#3 876343448#5 814061747#0 814061747#1 814061747#2 814061747#3 814061747#5 814061747#6 814061747#7 814061747#8 814061747#9 814061747#10"/>
    </vehicle>
    <vehicle id="pkwflow26.0" type="pkw" depart="54000.00" color="red">
        <route edges="783907721#2 782714971#0 782714971#1 782714971#2 782714971#3 782714971#4 111681903#0 111681903#1 111681903#2 111681903#3 120682114#1 120682114#2 120682114#3 24337240#0 24337240#1 24337240#2 24337240#3 24337240#4 24337240#5 24337240#7 835445203 111677668#0 111677668#3 111677668#4 111677669#0 111677669#1 111677669#2 111677669#3 111677669#4 111677669#5 876057376 876343449#0 876343449#1 876343449#2 876343449#3 876343449#4 803012921#0 803012921#1 803012921#2 803012921#4 876343451#0 876343451#1 876343451#2 876343451#3 814303496#0 814303496#1 876343448#0 876343448#1 876343448#2 876343448#3 876343448#5 814061747#0 814061747#1 814061747#2 814061747#3 814061747#5 814061747#6 814061747#7 814061747#8 814061747#9 814061747#10 gneE0 828195561#0 828195561#1 782710712 27149242 -27149243"/>
    </vehicle>
    <vehicle id="pkwflow27.0" type="pkw" depart="54000.00" color="red">
        <route edges="783907721#2 782714971#0 782714971#1 782714971#2 782714971#3 782714971#4 111681903#0 111681903#1 111681903#2 111681903#3 120682114#1 120682114#2 120682114#3 24337240#0 24337240#1 24337240#2 24337240#3 24337240#4 24337240#5 24337240#7 835445203 111677668#0 111677668#3 111677668#4 111677669#0 111677669#1 111677669#2 111677669#3 111677669#4 111677669#5 876057376 876343449#0 876343449#1 876343449#2 876343449#3 876343449#4 803012921#0 803012921#1 803012921#2 803012921#4 876343451#0 876343451#1 876343451#2 876343451#3 814303496#0 814303496#1 876343448#0 876343448#1 876343448#2 876343448#3 876343448#5 814061747#0 814061747#1 814061747#2 814061747#3 814061747#5 814061747#6 814061747#7 814061747#8 814061747#9 814061747#10 gneE0 828195561#0 828195561#1 782710712 -28298231 -311298682#0 -311298658 -274763815#1 -274763815#0 -274763813#5"/>
    </vehicle>
    <vehicle id="pkwflow28.0" type="pkw" depart="54000.00" color="white">
        <route edges="-gneE0 -814061747#10 -814061747#9 -814061747#8 -814061747#7 -814061747#6 -814061747#5 -814061747#3 -814061747#2 -814061747#1 -814061747#0 -876343448#5 -876343448#3 -876343448#2 -876343448#1 -876343448#0 -814303496#1 -814303496#0 -876343451#3 -876343451#2 -876343451#1 -876343451#0 -803012921#4 -803012921#3 -803012921#1 -803012921#0 -876343449#4 -876343449#3 -876343449#2 -876343449#1 -876343449#0 -4950193 -111677669#5 -111677669#4 -111677669#3 -111677669#2 -111677669#1 -111677669#0 -26943536#1"/>
    </vehicle>
    <vehicle id="pkwflow29.0" type="pkw" depart="54000.00" color="white">
        <route edges="-gneE0 -814061747#10 -814061747#9 -814061747#8 -814061747#7 -814061747#6 -814061747#5 -814061747#3 -814061747#2 -814061747#1 -814061747#0 -876343448#5 -876343448#3 -876343448#2 -876343448#1 -876343448#0 -814303496#1 -814303496#0 -876343451#3 -876343451#2 -876343451#1 -876343451#0 -803012921#4 -803012921#3 -803012921#1 -803012921#0 -876343449#4 -876343449#3 -876343449#2 -876343449#1 -876343449#0 -4950193 -111677669#5 -111677669#4 -111677669#3 -111677669#2 -111677669#1 -111677669#0 -111677668#4 -111677668#3 -111677668#0 7365262 74277990 gneE2"/>
    </vehicle>
    <vehicle id="pkwflow3.0" type="pkw" depart="54000.00" color="blue">
        <route edges="-835443464 -311298662#1 -311298662#0 -782714966#1 -782714966#0 -502325084#3 -502325084#1 -502325084#0 -25970859#1 -25970859#0 -880140407 535519490#0 535519490#1 311298665 58621262#0 58621262#1 747448014 880137010 37628709#0 37628709#1 205590836#2 255274250"/>
    </vehicle>
    <vehicle id="pkwflow30.0" type="pkw" depart="54000.00" color="white">
        <route edges="-gneE0 -814061747#10 -814061747#9 -814061747#8 -814061747#7 -814061747#6 -814061747#5 -814061747#3 -814061747#2 -814061747#1 -814061747#0 -876343448#5 -876343448#3 -876343448#2 -876343448#1 -876343448#0 -814303496#1 -814303496#0 -876343451#3 -876343451#2 -876343451#1 -876343451#0 -803012921#4 -803012921#3 -803012921#1 -803012921#0 -876343449#4 -876343449#3 -876343449#2 -876343449#1 -876343449#0 -4950193 -111677669#5 -111677669#4 -111677669#3 -111677669#2 -111677669#1 -111677669#0 -111677668#4 -111677668#3 -111677668#0 -835445203 -24337240#7 -24337240#6 -24337240#4 -24337240#3 -24337240#2 -24337240#1 -24337240#0 -120682114#3 -120682114#2 -120682114#1 -111681903#3 -111681903#2 -111681903#1 -111681903#0 -782714971#4 -782714971#3 -782714971#2 -782714971#1 -782714971#0 -783907721#2"/>
    </vehicle>
    <vehicle id="pkwflow31.0" type="pkw" depart="54000.00" color="white">
        <route edges="-gneE0 -814061747#10 -814061747#9 -814061747#8 -814061747#7 -814061747#6 -814061747#5 -814061747#3 -814061747#2 -814061747#1 -814061747#0 -876343448#5 -876343448#3 -876343448#2 -876343448#1 -876343448#0 -814303496#1 -814303496#0 -876343451#3 -876343451#2 -876343451#1 -876343451#0 -803012921#4 -803012921#3 -803012921#1 -803012921#0 -876343449#4 -876343449#3 -876343449#2 -876343449#1 -876343449#0 -4950193 -111677669#5 -111677669#4 -111677669#3 -111677669#2 -111677669#1 -111677669#0 -111677668#4 -111677668#3 -111677668#0 -835445203 -24337240#7 -24337240#6 -24337240#4 -24337240#3 -24337240#2 -24337240#1 -24337240#0 -120682114#3 -120682114#2 -120682114#1 -111681903#3 -111681903#2 -111681903#1 -111681903#0 -782714971#4 -782714971#3 -782714971#2 -782714971#1 -782714971#0 -783907721#2 -783907721#1 -783907721#0 -880137009#1 -880137009#0 747448014 880137010 37628709#0 37628709#1 205590836#2 255274250"/>
    </vehicle>
    <vehicle id="pkwflow32.0" type="pkw" depart="54000.00" color="white">
        <route edges="-gneE0 -814061747#10 -814061747#9 -814061747#8 -814061747#7 -814061747#6 -814061747#5 -814061747#3 -814061747#2 -814061747#1 -814061747#0 -876343448#5 -876343448#3 -876343448#2 -876343448#1 -876343448#0 -814303496#1 -814303496#0 -876343451#3 -876343451#2 -876343451#1 -876343451#0 -803012921#4 -803012921#3 -803012921#1 -803012921#0 -876343449#4 -876343449#3 -876343449#2 -876343449#1 -876343449#0 -4950193 -111677669#5 -111677669#4 -111677669#3 -111677669#2 -111677669#1 -111677669#0 -111677668#4 -111677668#3 -111677668#0 -835445203 -24337240#7 -24337240#6 -24337240#4 -24337240#3 -24337240#2 -24337240#1 -24337240#0 -120682114#3 -120682114#2 -120682114#1 -111681903#3 -111681903#2 -111681903#1 -111681903#0 -782714971#4 -782714971#3 -782714971#2 -782714971#1 -782714971#0 -783907721#2 783907721#2 782714971#0 782714971#1 4970256#0 4970256#1 4970256#3 4970256#4 -28468732#1"/>
    </vehicle>
    <vehicle id="pkwflow33.0" type="pkw" depart="54000.00" color="white">
        <route edges="111677669#1 111677669#2 111677669#3 111677669#4 111677669#5 876057376 876343449#0 876343449#1 876343449#2 876343449#3 876343449#4 803012921#0 803012921#1 803012921#2 803012921#4 876343451#0 876343451#1 876343451#2 876343451#3 814303496#0 814303496#1 876343448#0 876343448#1 876343448#2 876343448#3 876343448#5 814061747#0 814061747#1 814061747#2 814061747#3 814061747#5 814061747#6 814061747#7 814061747#8 814061747#9 814061747#10 gneE0 828195561#0 828195561#1 782710712 27149242 -27149243"/>
    </vehicle>
    <vehicle id="pkwflow34.0" type="pkw" depart="54000.00" color="white">
        <route edges="111677669#1 111677669#2 111677669#3 111677669#4 111677669#5 876057376 876343449#0 876343449#1 876343449#2 876343449#3 876343449#4 803012921#0 803012921#1 803012921#2 803012921#4 876343451#0 876343451#1 876343451#2 876343451#3 814303496#0 814303496#1 876343448#0 876343448#1 876343448#2 876343448#3 876343448#5 814061747#0 814061747#1 814061747#2 814061747#3 814061747#5 814061747#6 814061747#7 814061747#8 814061747#9 814061747#10 gneE0 828195561#0 828195561#1 782710712 -28298231 -311298682#0 -311298658 -274763815#1 -274763815#0 -274763813#5 -274763813#4"/>
    </vehicle>
    <vehicle id="pkwflow35.0" type="pkw" depart="54000.00" color="white">
        <route edges="111677669#1 111677669#2 111677669#3 111677669#4 111677669#5 876057376 876343449#0 876343449#1 876343449#2 876343449#3 876343449#4 803012921#0 803012921#1 803012921#2 803012921#4 876343451#0 876343451#1 876343451#2 876343451#3 814303496#0 814303496#1 876343448#0 876343448#1 876343448#2 876343448#3 876343448#5 814061747#0 814061747#1 814061747#2 814061747#3 814061747#5 814061747#6 814061747#7 814061747#8 814061747#9 814061747#10 gneE0 828195561#0 828195561#1 782710712 -28298231 -311298682#0 -311298658 -835443464 -311298662#1 -311298662#0 -782714966#1 -782714966#0 -502325084#3 -502325084#1 -502325084#0 -25970859#1 -25970859#0"/>
    </vehicle>
    <vehicle id="pkwflow36.0" type="pkw" depart="54000.00" color="white">
        <route edges="111677669#1 111677669#2 111677669#3 111677669#4 111677669#5 876057376 876343449#0 876343449#1 876343449#2 876343449#3 876343449#4 803012921#0 803012921#1 803012921#2 803012921#4 876343451#0 876343451#1 876343451#2 876343451#3 814303496#0 814303496#1 876343448#0 876343448#1 876343448#2 876343448#3 876343448#5 814061747#0 814061747#1 814061747#2 814061747#3 814061747#5 814061747#6 814061747#7 814061747#8 814061747#9 814061747#10 gneE0 828195561#0 828195561#1 782710712 -28298231 -311298682#0 -311298658 -835443464 -311298662#1 -311298662#0 -782714966#1 -782714966#0 -502325084#3 -502325084#1 -502325084#0 -25970859#1 -25970859#0 -880140407 -4895001#0 -4935286#3 -4935286#2 -4935286#1 -4935286#0"/>
    </vehicle>
    <vehicle id="pkwflow37.0" type="pkw" depart="54000.00" color="yellow">
        <route edges="4935286#0 4935286#1 4935286#2 4935286#3 131942152 535519490#0 535519490#1 311298665 58621262#0 58621262#1 880137009#0 880137009#1 783907721#0 783907721#1 783907721#2 782714971#0 782714971#1 782714971#2 782714971#3 782714971#4 111681903#0 111681903#1 111681903#2 111681903#3 120682114#1 120682114#2 120682114#3 24337240#0 24337240#1 24337240#2 24337240#3 24337240#4 24337240#5 24337240#7 835445203 111677668#0"/>
    </vehicle>
    <vehicle id="pkwflow38.0" type="pkw" depart="54000.00" color="yellow">
        <route edges="4935286#0 4935286#1 4935286#2 4935286#3 131942152 880140407 25970859#0 25970859#1 502325084#0 502325084#1 502325084#3 782714966#0 782714966#1 311298662#0 311298662#1 835443464 311298658 311298682#0 311298682#1 27149242 747448015 -828195561#1 -828195561#0 -gneE0 -814061747#10 -814061747#9 -814061747#8 -814061747#7 -814061747#6 -814061747#5 -814061747#3 -814061747#2 -814061747#1 -814061747#0 -876343448#5 -876343448#3 -876343448#2 -876343448#1 -876343448#0 -814303496#1 -814303496#0 -876343451#3 -876343451#2 -876343451#1 -876343451#0 -803012921#4 -803012921#3 -803012921#1 -803012921#0 -876343449#4 -876343449#3 -876343449#2 -876343449#1 -876343449#0 -4950193 -111677669#5"/>
    </vehicle>
    <vehicle id="pkwflow4.0" type="pkw" depart="54000.00" color="blue">
        <route edges="-311298662#0 -782714966#1 -782714966#0 -502325084#3 -502325084#1 -502325084#0 -25970859#1 -25970859#0 -880140407 535519490#0 535519490#1 311298665 58621262#0 58621262#1 880137009#0 880137009#1 783907721#0 783907721#1 783907721#2 782714971#0 782714971#1 782714971#2 782714971#3 782714971#4 111681903#0 111681903#1 111681903#2 111681903#3 120682114#1 120682114#2 120682114#3"/>
    </vehicle>
    <vehicle id="pkwflow40.0" type="pkw" depart="54000.00" color="yellow">
        <route edges="4935286#0 4935286#1 4935286#2 4935286#3 131942152 535519490#0 535519490#1 311298665 58621262#0 58621262#1 747448014 880137010 37628709#0 37628709#1 205590836#2 255274250"/>
    </vehicle>
    <vehicle id="pkwflow41.0" type="pkw" depart="54000.00" color="yellow">
        <route edges="4935286#0 4935286#1 4935286#2 4935286#3 131942152 880140407 25970859#0 25970859#1 502325084#0 502325084#1 502325084#3 782714966#0 782714966#1 311298662#0"/>
    </vehicle>
    <vehicle id="pkwflow42.0" type="pkw" depart="54000.00" color="yellow">
        <route edges="4935286#0 4935286#1 4935286#2 4935286#3 131942152 880140407 25970859#0 25970859#1 502325084#0 502325084#1 502325084#3 782714966#0 782714966#1 311298662#0 311298662#1 835443464 311298658 311298682#0 311298682#1 27149242 -27149243"/>
    </vehicle>
    <vehicle id="pkwflow43.0" type="pkw" depart="54000.00" color="yellow">
        <route edges="4935286#0 4935286#1 4935286#2 4935286#3 131942152 880140407 25970859#0 25970859#1 502325084#0 502325084#1 502325084#3 782714966#0 782714966#1 311298662#0 311298662#1 835443464 -274763815#1 -274763815#0 -274763813#5 -274763813#4 -274763813#3 -274763813#2 -274763813#1 -274763813#0 -240042195#2"/>
    </vehicle>
    <vehicle id="pkwflow44.0" type="pkw" depart="54000.00" color="yellow">
        <route edges="4935286#0 4935286#1 4935286#2 4935286#3 131942152 535519490#0 535519490#1 311298665 58621262#0 58621262#1 880137009#0 880137009#1 783907721#0 783907721#1 783907721#2 782714971#0 782714971#1 782714971#2 782714971#3 782714971#4 111681903#0 111681903#1 111681903#2 111681903#3 120682114#1 120682114#2 120682114#3 24337240#0 24337240#1 24337240#2 24337240#3 24337240#4 24337240#5 24337240#7 835445203 111677668#0 111677668#3 111677668#4 -26943536#1"/>
    </vehicle>
    <vehicle id="pkwflow45.0" type="pkw" depart="54000.00" color="yellow">
        <route edges="4935286#0 4935286#1 4935286#2 4935286#3 131942152 535519490#0 535519490#1 311298665 58621262#0 58621262#1 880137009#0 880137009#1 783907721#0 783907721#1 783907721#2 782714971#0 782714971#1 782714971#2 782714971#3 782714971#4 111681903#0 111681903#1 111681903#2 111681903#3 120682114#1 120682114#2 120682114#3 24337240#0 24337240#1 24337240#2 24337240#3 24337240#4 24337240#5 24337240#7 835445203 7365262 74277990 gneE2 -gneE3 gneE4"/>
    </vehicle>
    <vehicle id="pkwflow46.0" type="pkw" depart="54000.00" color="green">
        <route edges="-4894996#0 4970256#5 4970256#6 4970256#7 4970256#8 502325084#3 782714966#0 782714966#1 311298662#0 311298662#1 835443464 311298658 311298682#0 311298682#1 27149242 747448015 782710712 -28298231 -311298682#0 -311298658 -835443464 -311298662#1 -311298662#0 -311298685 311298685 311298662#0 311298662#1 835443464 -274763815#1 -274763815#0 -274763813#5 -274763813#4 -274763813#3 -274763813#2 -274763813#1 -274763813#0 -240042195#2"/>
    </vehicle>
    <vehicle id="pkwflow48.0" type="pkw" depart="54000.00" color="green">
        <route edges="62826731 28468732#0 28468732#1 4970256#5 4970256#6 4970256#7 4970256#8 502325084#3 782714966#0 782714966#1 311298662#0 311298662#1 835443464 311298658 311298682#0 311298682#1 27149242 -27149243"/>
    </vehicle>
    <vehicle id="pkwflow49.0" type="pkw" depart="54000.00" color="green">
        <route edges="62826731 28468732#0 28468732#1 4970256#5 4970256#6 4970256#7 4970256#8 502325084#3 782714966#0 782714966#1 311298662#0"/>
    </vehicle>
    <vehicle id="pkwflow5.0" type="pkw" depart="54000.00" color="blue">
        <route edges="880140407 25970859#0 25970859#1 502325084#0 502325084#1 502325084#3 782714966#0 782714966#1 311298662#0 311298662#1 835443464 -274763815#1 -274763815#0 -274763813#5 -274763813#4"/>
    </vehicle>
    <vehicle id="pkwflow51.0" type="pkw" depart="54000.00" color="green">
        <route edges="62826731 28468732#0 28468732#1 -4970256#4 -4970256#3 -4970256#1 -4970256#0 782714971#2 782714971#3 782714971#4 111681903#0 111681903#1 111681903#2 111681903#3 120682114#1 120682114#2 120682114#3 24337240#0 24337240#1 24337240#2 24337240#3 24337240#4 24337240#5 24337240#7 835445203 111677668#0 111677668#3"/>
    </vehicle>
    <vehicle id="pkwflow52.0" type="pkw" depart="54000.00" color="green">
        <route edges="-28468730#1 -28468730#0 58621262#1 747448014 782714970 58621262#0 28468730#0 28468730#1 62826731 28468732#0 28468732#1 4970256#5 4970256#6 4970256#7 4970256#8 502325084#3 782714966#0 782714966#1 311298662#0 311298662#1 835443464 311298658 311298682#0 311298682#1 27149242 747448015 -828195561#1 -828195561#0 -gneE0 -814061747#10 -814061747#9 -814061747#8 -814061747#7 -814061747#6 -814061747#5 -814061747#3 -814061747#2 -814061747#1 -814061747#0 -876343448#5 -876343448#3 -876343448#2 -876343448#1 -876343448#0 -814303496#1 -814303496#0 -876343451#3 -876343451#2 -876343451#1 -876343451#0 -803012921#4 -803012921#3 -803012921#1 -803012921#0 -876343449#4 -876343449#3 -876343449#2 -876343449#1 -876343449#0 -4950193 -111677669#5 -111677669#4 -111677669#3 -111677669#2 -111677669#1"/>
    </vehicle>
    <vehicle id="pkwflow54.0" type="pkw" depart="54000.00" color="green">
        <route edges="-28468730#1 -28468730#0 58621262#1 880137009#0 880137009#1 783907721#0 783907721#1 783907721#2 782714971#0 782714971#1 782714971#2 782714971#3 782714971#4 111681903#0 111681903#1 111681903#2 111681903#3 120682114#1 120682114#2 120682114#3 24337240#0 24337240#1 24337240#2 24337240#3 24337240#4 24337240#5 24337240#7 835445203 7365262 74277990 gneE2 -gneE3"/>
    </vehicle>
    <vehicle id="pkwflow55.0" type="pkw" depart="54000.00" color="red">
        <route edges="274763813#4 274763813#5 274763815#0 274763815#1 -835443464 -311298662#1 -311298662#0 -782714966#1 -782714966#0 -502325084#3 -502325084#1 -502325084#0"/>
    </vehicle>
    <vehicle id="pkwflow56.0" type="pkw" depart="54000.00" color="red">
        <route edges="240042195#1 240042195#2 274763813#0 274763813#1 274763813#2 274763813#3 274763813#4 274763813#5 274763815#0 274763815#1 -835443464 -311298662#1 -311298662#0 -782714966#1 -782714966#0 -502325084#3 -502325084#1 -502325084#0 -25970859#1 -25970859#0 -880140407 535519490#0 535519490#1 311298665 58621262#0 58621262#1 880137009#0 880137009#1 783907721#0 783907721#1 783907721#2 782714971#0 782714971#1 782714971#2 782714971#3 782714971#4 111681903#0 111681903#1 111681903#2 111681903#3 120682114#1 120682114#2 120682114#3 24337240#0 24337240#1 24337240#2 24337240#3 24337240#4 24337240#5 24337240#7 835445203"/>
    </vehicle>
    <vehicle id="pkwflow57.0" type="pkw" depart="54000.00" color="red">
        <route edges="240042195#1 240042195#2 274763813#0 274763813#1 274763813#2 274763813#3 274763813#4 274763813#5 274763815#0 274763815#1 311298658 311298682#0 311298682#1 27149242 747448015 782710712 -28298231 -311298682#0 -311298658 -274763815#1 -274763815#0 -274763813#5 -274763813#4 -274763813#3 -274763813#2 -274763813#1 -274763813#0 -240042195#2 -240042195#1 -240042195#0 -240042196#3 -240042196#2 -240042196#0 -23707342 -4929432#2 -4929432#1 -4929432#0 -835443463#2 -835443463#0 835445203 111677668#0 111677668#3 111677668#4 111677669#0 111677669#1 111677669#2 111677669#3 111677669#4 -111677669#4 -111677669#3 -111677669#2"/>
    </vehicle>
    <vehicle id="pkwflow58.0" type="pkw" depart="54000.00" color="red">
        <route edges="240042195#1 240042195#2 274763813#0 274763813#1 274763813#2 274763813#3 274763813#4 274763813#5 274763815#0 274763815#1 311298658 311298682#0 311298682#1 27149242 747448015 782710712 -28298231 -311298682#0 -311298658 -274763815#1 -274763815#0 -274763813#5 -274763813#4 -274763813#3 -274763813#2 -274763813#1 -274763813#0 -240042195#2 -240042195#1 -240042195#0 -240042196#3 -240042196#2 -240042196#0 -23707342 -4929432#2 -4929432#1 -4929432#0 -835443463#2 -835443463#0 835445203 111677668#0 111677668#3 111677668#4 -26943536#1"/>
    </vehicle>