<?xml version="1.0" encoding="UTF-8"?>

<!-- generated on 2021-09-20 12:14:58 by Eclipse SUMO duarouter Version 1.10.0
<configuration xmlns:xsi="http://www.w3.org/2001/XMLSchema-instance" xsi:noNamespaceSchemaLocation="http://sumo.dlr.de/xsd/duarouterConfiguration.xsd">

    <input>
        <net-file value="../Netzmodell2.net.xml"/>
        <route-files value="osm.bicycle.trips.xml"/>
    </input>

    <output>
        <output-file value="routes.rou.xml"/>
        <alternatives-output value="routes.rou.alt.xml"/>
    </output>

    <time>
        <begin value="53990"/>
        <end value="61000"/>
    </time>

    <report>
        <no-warnings value="true"/>
        <ignore-errors value="true"/>
        <no-step-log value="true"/>
    </report>

</configuration>
-->

<routes xmlns:xsi="http://www.w3.org/2001/XMLSchema-instance" xsi:noNamespaceSchemaLocation="http://sumo.dlr.de/xsd/routes_file.xsd">
    <vType id="bike_bicycle" vClass="bicycle"/>
    <vehicle id="bike1" type="bike_bicycle" depart="54002.00" departLane="best">
        <route edges="-4924949#1 4924949#1 -4924947#0 4877788#1 -4877785 120682113#1 627579930#0 627579930#1 40009020#0 40009020#2 40009020#4 40009020#5 834922892#0 -834922892#2 -834922892#1 -834922892#0 -40009020#5"/>
    </vehicle>
    <vehicle id="bike3" type="bike_bicycle" depart="54026.00" departLane="best">
        <route edges="74277990 -111681905#2 -111681905#1 -111681905#0 -124266855#7 -124266855#6 -124266855#5 -124266855#2 -124266855#1 -124266855#0 -5055277#6 -5055277#5 -5055277#4 -37627664#6 -37627664#5 5197053#0 5197053#1 5197053#2 -219796126#3 -219796126#2"/>
    </vehicle>
    <vehicle id="bike5" type="bike_bicycle" depart="54050.00" departLane="best">
        <route edges="-37651116#0 -106652007#0 -4950117#2 -4950117#1 -4950117#0 5197061#0 5197061#1 -5197064#3 -5197064#2 -5197064#1 -5197064#0 40009021#2 26947645#0 26947645#2 26947645#3 124266855#6 124266855#7 111681905#0 111681905#1"/>
    </vehicle>
    <vehicle id="bike8" type="bike_bicycle" depart="54086.00" departLane="best">
        <route edges="-37651116#2 -37651116#1 -37651116#0 -106652007#0 -4950117#2 -4950117#1 -4950117#0 5197061#0 5197061#1 -5197064#3 -5197064#2 -5197064#1 -5197064#0 40009021#2 26947645#0 26947645#2 26947645#3 124266855#6 124266855#7 111681905#0 111681905#1 111681905#2 -74277990 -7365262 -835445203 835443463#0 835443463#2 4929432#0 4929432#1 -231819410#3 231819410#0"/>
    </vehicle>
    <vehicle id="bike9" type="bike_bicycle" depart="54098.00" departLane="best">
        <route edges="4970255#1 4970255#2 311298685 4877788#0 4877788#1 4877788#2 4877788#4 4877788#5 4877788#6 120682116#0 120682116#1 120682116#2 120682116#3 120682116#4 120682116#5 -37651116#3 -37651116#2 -37651116#1 -37651116#0 -106652007#0 -4950117#2 -106652025#3 106652014 -106651999#0"/>
    </vehicle>
    <vehicle id="bike17" type="bike_bicycle" depart="54194.00" departLane="best" departSpeed="max">
        <route edges="-768058866 220736154#1 4894996#1 -627579930#0 -502325083 4877785 -4877788#1 4924947#0 -4924949#1 10271492#0 10271492#1 -274763814#0 -96687079#4 -96687079#3 -96687079#2 -96687079#1 -172251697#2 172251697#0 172251697#1"/>
    </vehicle>
    <vehicle id="bike18" type="bike_bicycle" depart="54206.00" departLane="best" departSpeed="max">
        <route edges="5026771 828203038#0 880140407 25970859#0 25970859#1 502325084#0 502325084#1 502325084#3 782714966#0 782714966#1 4877788#0 4924947#0 -4924949#1 10271492#0 10271492#1 -274763814#0 -274763813#5 -274763813#4 -465886918#1 -465886918#0 -25142441#3 -25142441#2 25142441#0 25142441#1 25142441#2"/>
    </vehicle>
    <vehicle id="bike20" type="bike_bicycle" depart="54230.00" departLane="best">
        <route edges="37627664#2 -37627664#2 -37627664#1 -219796126#0 -498033359#0 -40009020#7 -40009020#6 -40009020#5 -40009020#4 4877786#0 4877786#1 4877786#2 4877786#3 4877786#4 120682116#4 120682116#5 120682116#6 120682116#7 120682116#9 -778869028 778869028 -120682116#9 -120682116#7"/>
    </vehicle>
    <vehicle id="bike21" type="bike_bicycle" depart="54242.00" departLane="best">
        <route edges="-40009021#1 -40009021#0 -498033359#4 -498033359#3 -498033359#2 -498033359#1 -498033359#0 -40009020#7 -40009020#6 -40009020#5 -40009020#4 -40009020#3 -40009020#0 -627579930#1 -627579930#0 -502325083 -120682113#0 782714966#0 782714966#1 -311298685 -4970255#2"/>
    </vehicle>
    <vehicle id="bike22" type="bike_bicycle" depart="54254.00" departLane="best">
        <route edges="-172251692#1 -172251692#0 36970994#2 36970992 36971780 240042195#1 240042195#2 274763813#0 274763813#1 274763813#2 274763813#3 -465886918#1"/>
    </vehicle>
    <vehicle id="bike23" type="bike_bicycle" depart="54266.00" departLane="best">
        <route edges="-219796118#3 219796131#1 -498033359#2 -498033359#1 -498033359#0 -40009020#7 -40009020#6 -40009020#5 -40009020#4 219797787#0 219797784#0 219797784#1 4894991#2 4894991#3 4970256#4 4970256#5 4970256#6 4970256#7 -4894992#0 -25970859#1 -4970251#1 -4970251#0"/>
    </vehicle>
    <vehicle id="bike24" type="bike_bicycle" depart="54278.00" departLane="best">
        <route edges="25143145#1 172251694#0 -172251694#0 -25143145#1 -25143145#0 -4950115#2 -4950115#1 -4950115#0 -240042195#2 -240042195#1 -240042195#0 -240042196#3 -240042196#2 -240042196#0 -23707342 -4929432#2 -4929432#1 -4929432#0 -835443463#2 -835443463#0 835445203 7365262 74277990 -111681905#2 -111681905#1 -111681905#0 -124266855#7 -124266855#6 -26947645#3 -26947645#2 -26947645#0 -40009021#2 -40009021#1 -40009021#0 -498033359#4 -498033359#3 -498033359#2 -498033359#1 -498033359#0 -40009020#7 -40009020#6 -40009020#5 -40009020#4 -40009020#3 -40009020#0 -627579930#1 -627579930#0 -502325083 -120682113#0 782714966#0 782714966#1 -311298685 -4970255#2 -4970255#1 -761190893"/>
    </vehicle>
    <vehicle id="bike31" type="bike_bicycle" depart="54362.00" departLane="best">
        <route edges="219796100#2 -37627664#2 -37627664#1 -219796126#0 -498033359#0 -40009020#7 -40009020#6 -40009020#5 -40009020#4 -40009020#3 -40009020#0 -627579930#1 -627579930#0 120682115 4894997#0 4894997#1 36974908#2"/>
    </vehicle>
    <vehicle id="bike32" type="bike_bicycle" depart="54374.00" departLane="best">
        <route edges="5057605#0 5057605#1 4970254#1 4970254#2 4970254#3 4970254#4 4970254#5 4970255#0 4970255#1 4970255#2 311298685 4877788#0 4924947#0 -4924949#1 10271492#0 10271492#1 -274763814#0 -274763813#5 -274763813#4 -274763813#3 -274763813#2 -274763813#1 -274763813#0 -240042195#2 -240042195#1 -240042195#0 -240042196#3 -240042196#2 -240042196#0 -23707342 -4929432#2 -4929432#1 -4929432#0 -835443463#2 -172249928#2 172249930#0 -172249927 -172249931#0 4929432#1"/>
    </vehicle>
    <vehicle id="bike36" type="bike_bicycle" depart="54422.00" departLane="best">
        <route edges="6272848#2 474168602#1 474168602#2 474168056#5 828203038#0 880140407 4894999 28468732#0 28468732#1 4894996#0 4894996#1 627579930#1 40009020#0 40009020#2 40009020#4 40009020#5 40009020#6 40009020#7 498033359#0 219796126#0 37627664#1 37627664#2 37627664#3 37627664#4 37627664#5 37627664#6 -5055277#2 -5055277#1"/>
    </vehicle>
    <vehicle id="bike39" type="bike_bicycle" depart="54458.00" departLane="best">
        <route edges="-4911107#1 -4911107#0 -120682116#7 -120682116#6 -120682116#5 -120682116#4 -120682116#3 -120682116#2 -120682116#1 -120682116#0 -4877788#6 -4877788#5 -4877788#4 -120682115 -4894992#3"/>
    </vehicle>
    <vehicle id="bike40" type="bike_bicycle" depart="54470.00" departLane="best">
        <route edges="219796118#0 -219796102#1 -219796102#0 219796131#1 -498033359#2 -498033359#1 -498033359#0 -40009020#7 -40009020#6 -40009020#5 -40009020#4 -40009020#3 -40009020#0 -627579930#1 -627579930#0 -502325083 4877785 -4877788#1 4924947#0 4924947#1 4924947#2 4924947#3 -36974893 36974893 -4924947#3 -4924947#2"/>
    </vehicle>
    <vehicle id="bike44" type="bike_bicycle" depart="54518.00" departLane="best" departSpeed="max">
        <route edges="-172251699#2 -172251698#3 -172251698#2 -172251698#1 -172251698#0 -36970994#0 -4929432#2 -4929432#1 -4929432#0 -835443463#2 -835443463#0 835445203 7365262 74277990 -111681905#2 -111681905#1 -111681905#0 -124266855#7 -124266855#6 -124266855#5 -124266855#2 -124266855#1 -124266855#0"/>
    </vehicle>
    <vehicle id="bike48" type="bike_bicycle" depart="54566.00" departLane="best">
        <route edges="96687079#3 96687079#4 -274763813#5 -274763813#4 -274763813#3 -274763813#2 -274763813#1 -274763813#0 -240042195#2 -240042195#1 -240042195#0 -240042196#3 -240042196#2 -240042196#0 -23707342 -4929432#2 -4929432#1 -4929432#0 -835443463#2 -172249928#2 -172249928#1 172249926#1"/>
    </vehicle>
    <vehicle id="bike50" type="bike_bicycle" depart="54590.00" departLane="best">
        <route edges="-106652006 106652025#1 -106651993 -106651999#1 -106651999#0 -4950117#0 5197061#0 5197061#1 5197061#2 5197062#0 5197062#1 5197062#2 5197062#3 5197062#4 -4911109#2 465885893#0 465885894"/>
    </vehicle>
    <vehicle id="bike52" type="bike_bicycle" depart="54614.00" departLane="best">
        <route edges="-4911107#3 -4911107#2 -4911107#1 -4911107#0 -120682116#7 -120682116#6 -120682116#5 -120682116#4 -4877786#4 -4877786#3 -4877786#2 -4877786#1 -4877786#0 40009020#4 40009020#5 40009020#6 40009020#7 498033359#0 498033359#1 498033359#2 498033359#3 498033359#4 40009021#0 40009021#1 40009021#2 26947645#0 26947645#2 26947645#3"/>
    </vehicle>
    <vehicle id="bike55" type="bike_bicycle" depart="54650.00" departLane="best">
        <route edges="6272848#2 474168602#1 474168602#2 474168056#5 828203038#0 880140407 25970859#0 25970859#1 502325084#0 502325084#1 502325084#3 782714966#0 782714966#1 4877788#0 4924947#0 4924947#1 4924947#2 4924947#3 -36974893 36974893 -4924947#3 -4924947#2"/>
    </vehicle>
    <vehicle id="bike60" type="bike_bicycle" depart="54710.00" departLane="best">
        <route edges="4894992#2 4894992#3 -502325083 4877785 -4877788#1 4924947#0 -4924949#1 10271492#0 10271492#1 -274763814#0 -274763813#5 -274763813#4 -274763813#3 -274763813#2 -274763813#1 -274763813#0 -240042195#2 -240042195#1 -240042195#0 -240042196#3 -240042196#2 -240042196#0 -23707342 -4929432#2 -4929432#1 -4929432#0 -835443463#2 -172249928#2 -172249928#1 -172249928#0 172249931#3"/>
    </vehicle>
    <vehicle id="bike61" type="bike_bicycle" depart="54722.00" departLane="best">
        <route edges="4924947#1 -36974892 36974892 -4924947#1 -4924949#1 10271492#0 10271492#1 -274763814#0 -274763813#5 -274763813#4 -274763813#3 -274763813#2 -274763813#1 -274763813#0 -240042195#2 -240042195#1 -240042195#0 -240042196#3 -240042196#2 -240042196#0 -23707342 -4929432#2 -4929432#1 -4929432#0 -835443463#2 -172249928#2 -172249928#1 172249926#1"/>
    </vehicle>
    <vehicle id="bike63" type="bike_bicycle" depart="54746.00" departLane="best">
        <route edges="-106652014 106652025#3 -4950117#1 -4950117#0 5197061#0 5197061#1 -5197064#3 8050332"/>
    </vehicle>
    <vehicle id="bike64" type="bike_bicycle" depart="54758.00" departLane="best">
        <route edges="62826731 28468732#0 28468732#1 4894996#0 4894996#1 627579930#1 40009020#0 40009020#2 40009020#4 40009020#5 40009020#6 40009020#7 498033359#0 219796126#0 37627664#1 37627664#2 37627664#3 37627664#4 5197053#0 5197053#1 5197053#2"/>
    </vehicle>
    <vehicle id="bike65" type="bike_bicycle" depart="54770.00" departLane="best">
        <route edges="-498033359#3 -498033359#2 -498033359#1 219796126#0 37627664#1 37627664#2 37627664#3 37627664#4 37627664#5 37627664#6 5055277#4 5055277#5 5055277#6 124266855#0 124266855#1 124266855#2 124266855#5 124266855#6 124266855#7 111681905#0 111681905#1 111681905#2 -74277990 -7365262 -835445203 835443463#0 -172249928#2 172249930#0 -172249927 -172249931#0"/>
    </vehicle>
    <vehicle id="bike67" type="bike_bicycle" depart="54794.00" departLane="best">
        <route edges="-172251697#2 -172251697#1 -172251697#0 172251697#2 96687079#1 96687079#2 96687079#3 96687079#4 -274763813#5 -274763813#4 -274763813#3 -274763813#2 -274763813#1 -274763813#0 -240042195#2 -240042195#1 -240042195#0 -240042196#3 -240042196#2 -240042196#0 -23707342 -4929432#2 -4929432#1 -4929432#0 -835443463#2 -835443463#0 835445203 7365262 74277990 -111681905#2 -111681905#1 -111681905#0 -124266855#7 -124266855#6 -26947645#3 -26947645#2 -26947645#0 -40009021#2 -40009021#1 -40009021#0 -498033359#4 -498033359#3 -498033359#2 -498033359#1 -498033359#0 -40009020#7 -40009020#6 -40009020#5 -40009020#4 4877786#0 4877786#1 4877786#2 4877786#3 4877786#4 120682116#4 120682116#5 120682116#6 120682116#7 4911107#0 4911107#1 4911107#2 4911107#3 4911107#4 4911107#5 106652029#1"/>
    </vehicle>
    <vehicle id="bike68" type="bike_bicycle" depart="54806.00" departLane="best">
        <route edges="-172249930#0 172249928#2 -835443463#0 835445203 7365262 74277990 -111681905#2 -111681905#1 -111681905#0 -124266855#7 -124266855#6 -26947645#3 -26947645#2 -26947645#0 -40009021#2 -40009021#1 -40009021#0 -498033359#4 -498033359#3 -498033359#2 -498033359#1 -498033359#0 -40009020#7 -40009020#6 -40009020#5 -40009020#4 -40009020#3 -40009020#0 -627579930#1 4894996#2 4894996#3"/>
    </vehicle>
    <vehicle id="bike69" type="bike_bicycle" depart="54818.00" departLane="best">
        <route edges="4894996#2 4894996#3 -4877788#6 -4877788#5 -4877788#4 -4877788#2 -4877788#1 4924947#0 -4924949#1 10271492#0 10271492#1 -274763814#0 -274763813#5 -274763813#4 -274763813#3 -231819415#1 -231819415#0 25142441#7 23359215#0 -23359215#0"/>
    </vehicle>
    <vehicle id="bike70" type="bike_bicycle" depart="54830.00" departLane="best">
        <route edges="106651991#1 -4877788#4 -4877788#2 -4877788#1 4924947#0 -4924949#1 10271492#0 10271492#1 -274763814#0 -274763813#5 -274763813#4 -274763813#3 -274763813#2 -274763813#1 -274763813#0 -240042195#2 172251695#0 172251695#1"/>
    </vehicle>
    <vehicle id="bike71" type="bike_bicycle" depart="54842.00" departLane="best">
        <route edges="-4911107#1 -4911107#0 -120682116#7 -120682116#6 -120682116#5 -120682116#4 -120682116#3 -120682116#2 -120682116#1 -120682116#0 6263816#0 678743175"/>
    </vehicle>
    <vehicle id="bike74" type="bike_bicycle" depart="54878.00" departLane="best">
        <route edges="-36970994#2 -36970994#1 -36970994#0 -4929432#2 -4929432#1 -4929432#0 -835443463#2 -835443463#0 835445203 7365262 74277990 -111681905#2 -111681905#1 -111681905#0 -124266855#7 -124266855#6 -26947645#3 -26947645#2 -26947645#0 -40009021#2 -40009021#1 -40009021#0 -498033359#4 -498033359#3 -498033359#2 -498033359#1 -498033359#0 -40009020#7 -40009020#6 -40009020#5 -40009020#4 -40009020#3 -40009020#0 -627579930#1 -627579930#0 -502325083 -120682113#0 782714966#0 782714966#1 -311298685 7924755 -5029409#1 -5029408"/>
    </vehicle>
    <vehicle id="bike75" type="bike_bicycle" depart="54890.00" departLane="best">
        <route edges="96687079#2 96687079#3 96687079#4 -274763813#5 -274763813#4 -274763813#3 -274763813#2 -274763813#1 -784700120 274763813#2 274763813#3 274763813#4 274763813#5"/>
    </vehicle>
    <vehicle id="bike77" type="bike_bicycle" depart="54914.00" departLane="best">
        <route edges="-220934956 -4894996#2 627579930#1 40009020#0 40009020#2 40009020#4 40009020#5 40009020#6 40009020#7 498033359#0 498033359#1 498033359#2 498033359#3 -498033359#3 -498033359#2 -498033359#1 -498033359#0 -40009020#7"/>
    </vehicle>
    <vehicle id="bike78" type="bike_bicycle" depart="54926.00" departLane="best">
        <route edges="-5197064#2 -5197064#1 -5197064#0 -40009021#1 -40009021#0 -498033359#4 -498033359#3 -498033359#2 -498033359#1 -498033359#0 -40009020#7 -40009020#6 -40009020#5 -40009020#4 -40009020#3 -40009020#0 -627579930#1 4894996#2 220934956"/>
    </vehicle>
    <vehicle id="bike82" type="bike_bicycle" depart="54974.00" departLane="best" departSpeed="max">
        <route edges="5236305#0 5236305#1 5236305#2 474168056#5 828203038#0 880140407 25970859#0 25970859#1 502325084#0 502325084#1 502325084#3 782714966#0 782714966#1 4877788#0 4924947#0 -4924949#1 10271492#0 10271492#1 -274763814#0 -274763813#5 -274763813#4 -274763813#3 -274763813#2 -274763813#1 -274763813#0 -240042195#2 -240042195#1 -36971780 -36970992 -36970994#2 172251692#0 172251692#1 172251699#1 -172251698#3"/>
    </vehicle>
    <vehicle id="bike83" type="bike_bicycle" depart="54986.00" departLane="best">
        <route edges="-465885895#0 -465885893#0 4911109#2 -5197062#4 -5197062#3 -5197062#2 -5197062#1 -5197062#0 -5197061#2 -5197061#1 -5197061#0 4950117#0 4950117#1 4950117#2 106652007#0 37651116#0 37651116#1 37651116#2 37651116#3 -120682116#5 -120682116#4 -120682116#3 -120682116#2 -120682116#1 -120682116#0 -4877788#6 -4877788#5 -4877788#4 -4877788#2 -4877788#1 4924947#0 -4924949#1 10271492#0 10271492#1 -274763814#0 274763815#0 248740644#1 332645871 332644487#1"/>
    </vehicle>
    <vehicle id="bike86" type="bike_bicycle" depart="55022.00" departLane="best">
        <route edges="10271492#1 -274763814#0 -274763813#5 -274763813#4 -274763813#3 -274763813#2 -274763813#1 -274763813#0 4950115#0"/>
    </vehicle>
    <vehicle id="bike87" type="bike_bicycle" depart="55034.00" departLane="best">
        <route edges="4970254#5 4970255#0 4970255#1 4970255#2 311298685 4877788#0 4924947#0 -4924949#1 10271492#0 10271492#1 -274763814#0 -274763813#5 -274763813#4 -274763813#3 -274763813#2 -274763813#1 -274763813#0 -240042195#2 -240042195#1 -36971780 -36970992"/>
    </vehicle>
    <vehicle id="bike90" type="bike_bicycle" depart="55070.00" departLane="best">
        <route edges="465885893#0 465885893#2 -465885893#2 -465885893#0 4911109#2 -5197062#4 -5197062#3 -5197062#2 -5197062#1 -5197062#0 -5197061#2 -5197061#1 -5197061#0 4950117#0 4950117#1 4950117#2 106652007#0 37651116#0 37651116#1 37651116#2 37651116#3 -120682116#5 -120682116#4 -120682116#3 -120682116#2 -120682116#1 -120682116#0 -4877788#6 -4877788#5 -4877788#4 -4877788#2 -4877788#1 4924947#0 -4924949#1 10271492#0 10271492#1 -274763814#0 -274763813#5 -274763813#4 -274763813#3 -231819415#1 -231819415#0 25142441#7 4950115#1 4950115#2 25143145#0 25143145#1 172251694#0 36269567"/>
    </vehicle>
    <vehicle id="bike94" type="bike_bicycle" depart="55118.00" departLane="best">
        <route edges="-325795946#2 -325795946#1 -325795946#0 62826731 -4894999 25970859#0 25970859#1 502325084#0 502325084#1 502325084#3 782714966#0 782714966#1 4877788#0 4924947#0 -4924949#1 10271492#0 10271492#1 -274763814#0 -96687079#4 -96687079#3 -96687079#2 -96687079#1 -96687079#0"/>
    </vehicle>
    <vehicle id="bike95" type="bike_bicycle" depart="55130.00" departLane="best" departSpeed="max">
        <route edges="-814505163 5236305#2 474168056#5 828203038#0 880140407 25970859#0 -4970251#1 -4970251#0"/>
    </vehicle>
    <vehicle id="bike98" type="bike_bicycle" depart="55166.00" departLane="best">
        <route edges="172251698#2 -172251690 -172251692#0 -36970994#1 -36970994#0 -4929432#2 -4929432#1 -4929432#0 -835443463#2 -835443463#0 835445203 7365262 74277990 -111681905#2 -111681905#1 -111681905#0 -124266855#7 -124266855#6"/>
    </vehicle>
    <vehicle id="bike99" type="bike_bicycle" depart="55178.00" departLane="best">
        <route edges="gneE3 -gneE2 -111681905#2 -111681905#1 -111681905#0 -124266855#7 -124266855#6 -26947645#3 -26947645#2 -26947645#0 -40009021#2 5197064#0 5197064#1 5197064#2 5197064#3 5197061#2 5197061#3"/>
    </vehicle>
    <vehicle id="bike101" type="bike_bicycle" depart="55202.00" departLane="best">
        <route edges="5197061#0 -5197061#0 4950117#0 4950117#1 4950117#2 106652007#0 37651116#0 37651116#1 37651116#2 37651116#3 -120682116#5 -120682116#4 -120682116#3 -120682116#2 -120682116#1 -120682116#0 -4877788#6 -4877788#5 -4877788#4 -4877788#2 -4877788#1 4924947#0 -4924949#1 10271492#0 10271492#1 -274763814#0 -274763813#5 -274763813#4 -274763813#3"/>
    </vehicle>
    <vehicle id="bike102" type="bike_bicycle" depart="55214.00" departLane="best">
        <route edges="106652009#1 106651991#1 4877788#5 4877788#6 -4894996#3 -4894996#2 627579930#1 40009020#0 40009020#2 40009020#4 40009020#5 40009020#6 40009020#7 498033359#0 219796126#0 219796126#1 219796126#2 219796126#3 219796126#4 219796126#5 219796126#6 5055277#1 5055277#2 -37627664#6"/>
    </vehicle>
    <vehicle id="bike105" type="bike_bicycle" depart="55250.00" departLane="best">
        <route edges="-4911107#1 -4911107#0 -120682116#7 -120682116#6 -120682116#5 -120682116#4 -120682116#3 -120682116#2 -120682116#1 -120682116#0 -4877788#6 -4877788#5 -4877788#4 -4877788#2 -4877788#1 4924947#0 -4924949#1 10271492#0 10271492#1 -274763814#0 -274763813#5 -274763813#4 -274763813#3 -274763813#2 -274763813#1 -274763813#0 4950115#0"/>
    </vehicle>
    <vehicle id="bike108" type="bike_bicycle" depart="55286.00" departLane="best">
        <route edges="219796100#1 -219796100#1 -219796100#0 -219796126#1 -219796126#0 498033359#1 498033359#2 498033359#3 498033359#4 40009021#0 40009021#1 5197064#0 5197064#1 5197064#2 5197064#3 5197061#2 5197062#0 5197062#1 5197062#2 5197062#3 5197062#4 -4911109#2 465885893#0 465885893#2"/>
    </vehicle>
    <vehicle id="bike109" type="bike_bicycle" depart="55298.00" departLane="best">
        <route edges="-25143145#1 -25143145#0 -4950115#2 -4950115#1 -4950115#0 -240042195#2 -240042195#1 -240042195#0 -240042196#3 -240042196#2 -240042196#0 -23707342 -4929432#2 -4929432#1 -4929432#0 -835443463#2 -835443463#0 835445203 7365262 74277990 -111681905#2 -111681905#1 -111681905#0 -124266855#7 -124266855#6 -26947645#3 -26947645#2 -26947645#0 -40009021#2 -40009021#1 -40009021#0 -498033359#4 -498033359#3 -498033359#2 -498033359#1 -498033359#0"/>
    </vehicle>
    <vehicle id="bike111" type="bike_bicycle" depart="55322.00" departLane="best">
        <route edges="172251692#1 172251699#1 -172251698#3 -172251698#2 -172251698#1 -172251698#0 -36970994#0 -4929432#2 -4929432#1 -4929432#0 -835443463#2 -835443463#0 835445203 7365262 74277990 -111681905#2 -111681905#1 -111681905#0 -124266855#7 -124266855#6 -26947645#3 -26947645#2 -26947645#0 -40009021#2 -40009021#1 -40009021#0 -498033359#4 -498033359#3 -498033359#2 -498033359#1 -498033359#0 -40009020#7 -40009020#6 -40009020#5 -40009020#4 -40009020#3 -40009020#0 -627579930#1 4894996#2 4894996#3 -4877788#6 -4877788#5 -106651991#1 -106652009#1 4877788#5"/>
    </vehicle>
    <vehicle id="bike117" type="bike_bicycle" depart="55394.00" departLane="best" departSpeed="max">
        <route edges="-465885893#2 -465885893#0 4911109#2 -5197062#4 -5197062#3 -5197062#2 -5197062#1 -5197062#0 -5197061#2 -5197061#1 -5197061#0 4950117#0 106651999#0 106651999#1 106651999#2 -220934962"/>
    </vehicle>
    <vehicle id="bike119" type="bike_bicycle" depart="55418.00" departLane="best">
        <route edges="220736154#1 4894996#1 -627579930#0 -502325083 4877785 -4877788#1 4924947#0 -4924949#1 10271492#0 10271492#1 -274763814#0 -274763813#5 -274763813#4 -465886918#1 -465886918#0 -25142441#3 -25142441#2 25142441#0 25142441#1 25142441#2 25142441#3"/>
    </vehicle>
    <vehicle id="bike125" type="bike_bicycle" depart="55490.00" departLane="best">
        <route edges="-5055277#1 -219796126#6 -219796126#5 -219796126#4 -219796126#3 -219796126#2 -219796126#1 -219796126#0 -498033359#0 -40009020#7 -40009020#6 -40009020#5 -40009020#4 -40009020#3 4894991#0 4894991#1"/>
    </vehicle>
    <vehicle id="bike126" type="bike_bicycle" depart="55502.00" departLane="best" departSpeed="max">
        <route edges="-172249931#3 172249928#0 172249928#1 172249928#2 -835443463#0 835445203 7365262 74277990 -111681905#2 -111681905#1 -111681905#0 -124266855#7 -124266855#6 -26947645#3 -26947645#2 -26947645#0 -40009021#2 -40009021#1 -40009021#0 -498033359#4 -498033359#3 -498033359#2 -498033359#1 -498033359#0 -40009020#7 -40009020#6 -40009020#5 -40009020#4 -40009020#3 -40009020#0 -627579930#1 4894996#2 4894996#3 -4877788#6 -4877788#5 106651991#2"/>
    </vehicle>
    <vehicle id="bike128" type="bike_bicycle" depart="55526.00" departLane="best" departSpeed="max">
        <route edges="-172249931#3 172249928#0 172249928#1 172249928#2 -835443463#0 835445203 7365262 74277990 -111681905#2 -111681905#1 -111681905#0 -124266855#7 -124266855#6 -124266855#5 -124266855#2 -124266855#1 -124266855#0 -5055277#6 -5055277#5 -5055277#4 -37627664#6 -37627664#5"/>
    </vehicle>
    <vehicle id="bike129" type="bike_bicycle" depart="55538.00" departLane="best">
        <route edges="-4911107#1 -4911107#0 -120682116#7 -120682116#6 -120682116#5 -120682116#4 -4877786#4 -4877786#3 -4877786#2 -4877786#1 -4877786#0 219797787#0 219797784#0 219797784#1 4894991#2 4894991#3 4970256#4 4970256#5 813586708#0 813586708#1"/>
    </vehicle>
    <vehicle id="bike132" type="bike_bicycle" depart="55574.00" departLane="best">
        <route edges="5029409#1 -7924755 311298685 4877788#0 4877788#1 4877788#2 4877788#4 4877788#5 4877788#6 120682116#0 120682116#1 120682116#2 120682116#3 120682116#4 120682116#5 -37651116#3 -37651116#2 -37651116#1 37651116#1 37651116#2"/>
    </vehicle>
    <vehicle id="bike135" type="bike_bicycle" depart="55610.00" departLane="best">
        <route edges="4970256#8 502325084#3 120682113#0 120682113#1 627579930#0 627579930#1 40009020#0 40009020#2 40009020#4 40009020#5 40009020#6 40009020#7 498033359#0 498033359#1 498033359#2 498033359#3 -498033359#3"/>
    </vehicle>
    <vehicle id="bike137" type="bike_bicycle" depart="55634.00" departLane="best">
        <route edges="-240042195#0 -240042196#3 -240042196#2 -240042196#0 -23707342 -4929432#2 -4929432#1 -4929432#0 -835443463#2 -835443463#0 835445203 7365262 74277990 -111681905#2 -111681905#1 -111681905#0 -124266855#7 -124266855#6 -26947645#3 -220934942"/>
    </vehicle>
    <vehicle id="bike138" type="bike_bicycle" depart="55646.00" departLane="best">
        <route edges="-219796126#6 -219796126#5 -219796126#4 -5197053#2 -5197053#1 -5197053#0 37627664#5 37627664#6 5055277#4 5055277#5 5055277#6 124266855#0 124266855#1 124266855#2 124266855#5 124266855#6 124266855#7 111681905#0 111681905#1 111681905#2 -74277990 -7365262 -835445203 835443463#0 835443463#2 4929432#0 4929432#1 4929432#2 -36970986 172251698#0"/>
    </vehicle>
    <vehicle id="bike139" type="bike_bicycle" depart="55658.00" departLane="best">
        <route edges="-4924947#1 -4924949#1 10271492#0 10271492#1 -274763814#0 -274763813#5 -274763813#4 -274763813#3 -274763813#2 -274763813#1 -274763813#0 -240042195#2 172251695#0 172251695#1 280335871 280335872 -172251695#0 240042195#2"/>
    </vehicle>
    <vehicle id="bike141" type="bike_bicycle" depart="55682.00" departLane="best">
        <route edges="25142441#7 -4950115#0 -240042195#2 -240042195#1 -240042195#0 -240042196#3 -240042196#2 -240042196#0 -23707342 -4929432#2 -4929432#1 -4929432#0 -835443463#2 -835443463#0 835445203 7365262 74277990 -111681905#2 -111681905#1 -111681905#0 -124266855#7 -124266855#6 -26947645#3 -26947645#2 -26947645#0 -40009021#2 -40009021#1 -40009021#0 -498033359#4 -498033359#3 -498033359#2 -498033359#1 -498033359#0 -40009020#7 -40009020#6 -40009020#5 -40009020#4 -40009020#3 -40009020#0 -627579930#1 -627579930#0 -502325083 4877785 -4877788#1 4924947#0 4924947#1 4924947#2 4924947#3 -36974893 36974893 -4924947#3"/>
    </vehicle>
    <vehicle id="bike143" type="bike_bicycle" depart="55706.00" departLane="best">
        <route edges="5197053#1 5197053#2 -219796126#3 -219796126#2 -219796126#1 -219796126#0 498033359#1 498033359#2 -219796131#1 -219796118#2 -219796129"/>
    </vehicle>
    <vehicle id="bike145" type="bike_bicycle" depart="55730.00" departLane="best">
        <route edges="-106651997#0 -106652016 -6263818#1 -6263818#0 -4877788#5 -4877788#4 -4877788#2 -4877788#1 4924947#0"/>
    </vehicle>
    <vehicle id="bike146" type="bike_bicycle" depart="55742.00" departLane="best">
        <route edges="25970859#0 25970859#1 502325084#0 502325084#1 502325084#3 782714966#0 782714966#1 4877788#0 4924947#0 4924947#1 -36974892 36974892 -4924947#1"/>
    </vehicle>
    <vehicle id="bike147" type="bike_bicycle" depart="55754.00" departLane="best">
        <route edges="474168056#1 474168056#2 474168056#3 474168056#4 474168056#5 828203038#0 880140407 25970859#0 25970859#1 502325084#0 502325084#1 502325084#3 782714966#0 782714966#1 4877788#0 4924947#0 -4924949#1 10271492#0 10271492#1 -274763814#0 -96687079#4 -96687079#3 -96687079#2 -96687079#1 -172251697#2 172251697#0 172251697#1"/>
    </vehicle>
    <vehicle id="bike148" type="bike_bicycle" depart="55766.00" departLane="best">
        <route edges="-834922892#0 -40009020#5 -40009020#4 4877786#0 4877786#1 4877786#2 4877786#3 4877786#4 120682116#4 120682116#5 -37651116#3 -37651116#2 -37651116#1 -37651116#0 -106652007#0 -4950117#2 -106652025#3 -106652025#2 -106651993 106651999#2 -106652006"/>
    </vehicle>
    <vehicle id="bike149" type="bike_bicycle" depart="55778.00" departLane="best" departSpeed="max">
        <route edges="-172251689 -172251698#0 -36970994#0 -4929432#2 -4929432#1 -4929432#0 -835443463#2 -835443463#0 835445203 7365262"/>
    </vehicle>
    <vehicle id="bike150" type="bike_bicycle" depart="55790.00" departLane="best">
        <route edges="782714966#1 4877788#0 4924947#0 -4924949#1 10271492#0 10271492#1 -274763814#0 -274763813#5 -274763813#4 -274763813#3 -274763813#2 -274763813#1 -274763813#0 -240042195#2 -240042195#1 -36971780 -36970992 -36970994#2 172251692#0 172251692#1"/>
    </vehicle>
    <vehicle id="bike154" type="bike_bicycle" depart="55838.00" departLane="best">