<?xml version="1.0" encoding="UTF-8"?>

<!-- generated on 2021-09-20 12:16:02 by Eclipse SUMO duarouter Version 1.10.0
<configuration xmlns:xsi="http://www.w3.org/2001/XMLSchema-instance" xsi:noNamespaceSchemaLocation="http://sumo.dlr.de/xsd/duarouterConfiguration.xsd">

    <input>
        <net-file value="../Netzmodell2.net.xml"/>
        <route-files value="trips.trips.xml"/>
    </input>

    <output>
        <output-file value="trips.trips.xml.tmp"/>
        <write-trips value="true"/>
    </output>

    <time>
        <begin value="53990"/>
        <end value="61000"/>
    </time>

    <report>
        <no-warnings value="true"/>
        <ignore-errors value="true"/>
        <no-step-log value="true"/>
    </report>

</configuration>
-->

<routes xmlns:xsi="http://www.w3.org/2001/XMLSchema-instance" xsi:noNamespaceSchemaLocation="http://sumo.dlr.de/xsd/routes_file.xsd">
    <vType id="veh_passenger" vClass="passenger"/>
    <trip id="veh1" type="veh_passenger" depart="53991.85" departLane="best" departSpeed="max" from="-5197045#1" to="-5026771"/>
    <trip id="veh2" type="veh_passenger" depart="53993.70" departLane="best" departSpeed="max" from="5026771" to="26216780#2"/>
    <trip id="veh3" type="veh_passenger" depart="53995.55" departLane="best" departSpeed="max" from="8162045" to="-26943536#0"/>
    <trip id="veh5" type="veh_passenger" depart="53999.25" departLane="best" departSpeed="max" from="-4877791" to="-96687079#0"/>
    <trip id="veh6" type="veh_passenger" depart="54001.10" departLane="best" departSpeed="max" from="-111677671#1" to="-4894996#3"/>
    <trip id="veh7" type="veh_passenger" depart="54002.95" departLane="best" from="37551339#0" to="111677671#1"/>
    <trip id="veh8" type="veh_passenger" depart="54004.80" departLane="best" departSpeed="max" from="-4877791" to="255274250"/>
    <trip id="veh9" type="veh_passenger" depart="54006.65" departLane="best" departSpeed="max" from="5029408" to="-120682115"/>
    <trip id="veh10" type="veh_passenger" depart="54008.50" departLane="best" departSpeed="max" from="5029408" to="26216781#2"/>
    <trip id="veh11" type="veh_passenger" depart="54010.35" departLane="best" departSpeed="max" from="-5197061#3" to="-37548821#0"/>
    <trip id="veh12" type="veh_passenger" depart="54012.20" departLane="best" departSpeed="max" from="96687079#0" to="-5236305#0"/>
    <trip id="veh13" type="veh_passenger" depart="54014.05" departLane="best" departSpeed="max" from="-255274250" to="-26943536#0"/>
    <trip id="veh14" type="veh_passenger" depart="54015.90" departLane="best" departSpeed="max" from="5236305#0" to="255274250"/>
    <trip id="veh15" type="veh_passenger" depart="54017.75" departLane="best" departSpeed="max" from="5029408" to="4877791"/>
    <trip id="veh16" type="veh_passenger" depart="54019.60" departLane="best" departSpeed="max" from="26943536#0" to="gneE4"/>
    <trip id="veh17" type="veh_passenger" depart="54021.45" departLane="best" departSpeed="max" from="-8050332" to="111677671#1"/>
    <trip id="veh18" type="veh_passenger" depart="54023.30" departLane="best" departSpeed="max" from="5236305#0" to="255274250"/>
    <trip id="veh19" type="veh_passenger" depart="54025.15" departLane="best" departSpeed="max" from="5236305#0" to="120682116#1"/>
    <trip id="veh20" type="veh_passenger" depart="54027.00" departLane="best" departSpeed="max" from="4935299#0" to="-26943536#0"/>
    <trip id="veh21" type="veh_passenger" depart="54028.85" departLane="best" departSpeed="max" from="-4877791" to="-5029408"/>
    <trip id="veh22" type="veh_passenger" depart="54030.70" departLane="best" departSpeed="max" from="-255274250" to="-5026771"/>
    <trip id="veh23" type="veh_passenger" depart="54032.55" departLane="best" departSpeed="max" from="-255274250" to="-5029408"/>
    <trip id="veh24" type="veh_passenger" depart="54034.40" departLane="best" departSpeed="max" from="37548821#0" to="-5236305#0"/>
    <trip id="veh25" type="veh_passenger" depart="54036.25" departLane="best" departSpeed="max" from="-8050332" to="-502325084#3"/>
    <trip id="veh26" type="veh_passenger" depart="54038.10" departLane="best" departSpeed="max" from="-5197045#1" to="8050332"/>
    <trip id="veh27" type="veh_passenger" depart="54039.95" departLane="best" departSpeed="max" from="-274763814#1" to="4877791"/>
    <trip id="veh28" type="veh_passenger" depart="54041.80" departLane="best" departSpeed="max" from="-274763814#1" to="-5236305#0"/>
    <trip id="veh29" type="veh_passenger" depart="54043.65" departLane="best" departSpeed="max" from="96687079#0" to="25970859#0"/>
    <trip id="veh30" type="veh_passenger" depart="54045.50" departLane="best" departSpeed="max" from="27149243" to="26216780#2"/>
    <trip id="veh31" type="veh_passenger" depart="54047.35" departLane="best" departSpeed="max" from="5236305#0" to="4970254#3"/>
    <trip id="veh33" type="veh_passenger" depart="54051.05" departLane="best" departSpeed="max" from="-5197061#3" to="-5029408"/>
    <trip id="veh34" type="veh_passenger" depart="54052.90" departLane="best" departSpeed="max" from="-4877791" to="8050332"/>
    <trip id="veh35" type="veh_passenger" depart="54054.75" departLane="best" departSpeed="max" from="5236305#0" to="-5029408"/>
    <trip id="veh36" type="veh_passenger" depart="54056.60" departLane="best" from="4894992#3" to="-8162045"/>
    <trip id="veh37" type="veh_passenger" depart="54058.45" departLane="best" departSpeed="max" from="8162045" to="-96687079#0"/>
    <trip id="veh38" type="veh_passenger" depart="54060.30" departLane="best" departSpeed="max" from="-5197045#1" to="-5026771"/>
    <trip id="veh39" type="veh_passenger" depart="54062.15" departLane="best" departSpeed="max" from="27149243" to="-5026771"/>
    <trip id="veh40" type="veh_passenger" depart="54064.00" departLane="best" departSpeed="max" from="27149243" to="5197064#2"/>
    <trip id="veh41" type="veh_passenger" depart="54065.85" departLane="best" departSpeed="max" from="-8050332" to="-5026771"/>
    <trip id="veh42" type="veh_passenger" depart="54067.70" departLane="best" departSpeed="max" from="-255274250" to="-26943536#0"/>
    <trip id="veh43" type="veh_passenger" depart="54069.55" departLane="best" departSpeed="max" from="5029408" to="-8162045"/>
    <trip id="veh44" type="veh_passenger" depart="54071.40" departLane="best" from="-240042195#2" to="-5236305#0"/>
    <trip id="veh45" type="veh_passenger" depart="54073.25" departLane="best" departSpeed="max" from="96687079#0" to="111677671#1"/>
    <trip id="veh46" type="veh_passenger" depart="54075.10" departLane="best" departSpeed="max" from="96687079#0" to="5197061#3"/>
    <trip id="veh47" type="veh_passenger" depart="54076.95" departLane="best" departSpeed="max" from="-111677671#1" to="4877791"/>
    <trip id="veh48" type="veh_passenger" depart="54078.80" departLane="best" departSpeed="max" from="4935299#0" to="111677671#1"/>
    <trip id="veh49" type="veh_passenger" depart="54080.65" departLane="best" departSpeed="max" from="-5197045#1" to="26216780#2"/>
    <trip id="veh50" type="veh_passenger" depart="54082.50" departLane="best" departSpeed="max" from="-255274250" to="-8162045"/>
    <trip id="veh51" type="veh_passenger" depart="54084.35" departLane="best" from="120682116#7" to="8050332"/>
    <trip id="veh52" type="veh_passenger" depart="54086.20" departLane="best" departSpeed="max" from="26943536#0" to="-37548821#0"/>
    <trip id="veh53" type="veh_passenger" depart="54088.05" departLane="best" departSpeed="max" from="8162045" to="5197061#3"/>
    <trip id="veh54" type="veh_passenger" depart="54089.90" departLane="best" departSpeed="max" from="-5197045#1" to="255274250"/>
    <trip id="veh55" type="veh_passenger" depart="54091.75" departLane="best" departSpeed="max" from="5026771" to="111677671#1"/>
    <trip id="veh56" type="veh_passenger" depart="54093.60" departLane="best" departSpeed="max" from="5029408" to="111677671#1"/>
    <trip id="veh57" type="veh_passenger" depart="54095.45" departLane="best" from="-111677669#1" to="-5055277#2"/>
    <trip id="veh58" type="veh_passenger" depart="54097.30" departLane="best" departSpeed="max" from="-111677671#1" to="8050332"/>
    <trip id="veh59" type="veh_passenger" depart="54099.15" departLane="best" departSpeed="max" from="5236305#0" to="5197045#1"/>
    <trip id="veh60" type="veh_passenger" depart="54101.00" departLane="best" departSpeed="max" from="-5197061#3" to="-26943536#0"/>
    <trip id="veh61" type="veh_passenger" depart="54102.85" departLane="best" departSpeed="max" from="5236305#0" to="8050332"/>
    <trip id="veh62" type="veh_passenger" depart="54104.70" departLane="best" departSpeed="max" from="-255274250" to="-96687079#0"/>
    <trip id="veh63" type="veh_passenger" depart="54106.55" departLane="best" departSpeed="max" from="-255274250" to="4877791"/>
    <trip id="veh64" type="veh_passenger" depart="54108.40" departLane="best" departSpeed="max" from="5026771" to="-27149243"/>
    <trip id="veh66" type="veh_passenger" depart="54112.10" departLane="best" departSpeed="max" from="-5197045#1" to="5197061#3"/>
    <trip id="veh67" type="veh_passenger" depart="54113.95" departLane="best" departSpeed="max" from="-gneE4" to="-5026771"/>
    <trip id="veh68" type="veh_passenger" depart="54115.80" departLane="best" from="26943536#1" to="4877791"/>
    <trip id="veh69" type="veh_passenger" depart="54117.65" departLane="best" departSpeed="max" from="-4877791" to="-5029408"/>
    <trip id="veh70" type="veh_passenger" depart="54119.50" departLane="best" departSpeed="max" from="96687079#0" to="26216780#2"/>
    <trip id="veh71" type="veh_passenger" depart="54121.35" departLane="best" departSpeed="max" from="-gneE4" to="111677671#1"/>
    <trip id="veh72" type="veh_passenger" depart="54123.20" departLane="best" departSpeed="max" from="-274763814#1" to="-5026771"/>
    <trip id="veh73" type="veh_passenger" depart="54125.05" departLane="best" departSpeed="max" from="-5197061#3" to="255274250"/>
    <trip id="veh74" type="veh_passenger" depart="54126.90" departLane="best" departSpeed="max" from="-4877791" to="-5026771"/>
    <trip id="veh75" type="veh_passenger" depart="54128.75" departLane="best" departSpeed="max" from="-4877791" to="783907721#1"/>
    <trip id="veh76" type="veh_passenger" depart="54130.60" departLane="best" departSpeed="max" from="5236305#0" to="-26943536#0"/>
    <trip id="veh77" type="veh_passenger" depart="54132.45" departLane="best" from="-4935286#1" to="26216780#2"/>
    <trip id="veh78" type="veh_passenger" depart="54134.30" departLane="best" departSpeed="max" from="-4877791" to="-28298231"/>
    <trip id="veh79" type="veh_passenger" depart="54136.15" departLane="best" departSpeed="max" from="8162045" to="111677671#1"/>
    <trip id="veh81" type="veh_passenger" depart="54139.85" departLane="best" departSpeed="max" from="5029408" to="-37548821#0"/>
    <trip id="veh82" type="veh_passenger" depart="54141.70" departLane="best" departSpeed="max" from="-255274250" to="-8162045"/>
    <trip id="veh83" type="veh_passenger" depart="54143.55" departLane="best" departSpeed="max" from="-gneE4" to="-96687079#0"/>
    <trip id="veh84" type="veh_passenger" depart="54145.40" departLane="best" departSpeed="max" from="5026771" to="26216780#2"/>
    <trip id="veh85" type="veh_passenger" depart="54147.25" departLane="best" departSpeed="max" from="96687079#0" to="-26943536#0"/>
    <trip id="veh86" type="veh_passenger" depart="54149.10" departLane="best" departSpeed="max" from="-8050332" to="-5236305#0"/>
    <trip id="veh87" type="veh_passenger" depart="54150.95" departLane="best" departSpeed="max" from="-4877791" to="-8162045"/>
    <trip id="veh88" type="veh_passenger" depart="54152.80" departLane="best" departSpeed="max" from="-gneE4" to="-5029408"/>
    <trip id="veh89" type="veh_passenger" depart="54154.65" departLane="best" departSpeed="max" from="-5197045#1" to="8050332"/>
    <trip id="veh90" type="veh_passenger" depart="54156.50" departLane="best" departSpeed="max" from="-gneE4" to="5197061#3"/>
    <trip id="veh91" type="veh_passenger" depart="54158.35" departLane="best" departSpeed="max" from="27149243" to="-26943536#0"/>
    <trip id="veh92" type="veh_passenger" depart="54160.20" departLane="best" from="gneE0" to="5197045#1"/>
    <trip id="veh93" type="veh_passenger" depart="54162.05" departLane="best" departSpeed="max" from="96687079#0" to="8050332"/>
    <trip id="veh94" type="veh_passenger" depart="54163.90" departLane="best" departSpeed="max" from="5236305#0" to="-37548821#0"/>
    <trip id="veh95" type="veh_passenger" depart="54165.75" departLane="best" departSpeed="max" from="26943536#0" to="-5026771"/>
    <trip id="veh96" type="veh_passenger" depart="54167.60" departLane="best" departSpeed="max" from="-8050332" to="-26943536#0"/>
    <trip id="veh97" type="veh_passenger" depart="54169.45" departLane="best" departSpeed="max" from="-8050332" to="gneE4"/>
    <trip id="veh98" type="veh_passenger" depart="54171.30" departLane="best" from="205590836#2" to="-8162045"/>
    <trip id="veh99" type="veh_passenger" depart="54173.15" departLane="best" departSpeed="max" from="96687079#0" to="gneE4"/>
    <trip id="veh100" type="veh_passenger" depart="54175.00" departLane="best" departSpeed="max" from="27149243" to="4877791"/>
    <trip id="veh101" type="veh_passenger" depart="54176.85" departLane="best" departSpeed="max" from="-274763814#1" to="-5029408"/>
    <trip id="veh102" type="veh_passenger" depart="54178.70" departLane="best" departSpeed="max" from="96687079#0" to="131942152"/>
    <trip id="veh103" type="veh_passenger" depart="54180.55" departLane="best" departSpeed="max" from="27149243" to="4877791"/>
    <trip id="veh104" type="veh_passenger" depart="54182.40" departLane="best" from="-111681905#2" to="255274250"/>
    <trip id="veh105" type="veh_passenger" depart="54184.25" departLane="best" departSpeed="max" from="26943536#0" to="5197061#3"/>
    <trip id="veh106" type="veh_passenger" depart="54186.10" departLane="best" departSpeed="max" from="-274763814#1" to="8050332"/>
    <trip id="veh107" type="veh_passenger" depart="54187.95" departLane="best" from="311298658" to="26216780#2"/>
    <trip id="veh108" type="veh_passenger" depart="54189.80" departLane="best" from="-4894996#0" to="-27149243"/>
    <trip id="veh109" type="veh_passenger" depart="54191.65" departLane="best" from="28468732#1" to="255274250"/>
    <trip id="veh110" type="veh_passenger" depart="54193.50" departLane="best" from="-gneE0" to="255274250"/>
    <trip id="veh111" type="veh_passenger" depart="54195.35" departLane="best" departSpeed="max" from="26943536#0" to="8050332"/>
    <trip id="veh112" type="veh_passenger" depart="54197.20" departLane="best" from="-4950115#0" to="-8162045"/>
    <trip id="veh113" type="veh_passenger" depart="54199.05" departLane="best" departSpeed="max" from="4935299#0" to="-5029408"/>
    <trip id="veh114" type="veh_passenger" depart="54200.90" departLane="best" departSpeed="max" from="-5197061#3" to="4877791"/>
    <trip id="veh115" type="veh_passenger" depart="54202.75" departLane="best" departSpeed="max" from="-255274250" to="-96687079#0"/>
    <trip id="veh116" type="veh_passenger" depart="54204.60" departLane="best" from="96687079#2" to="gneE4"/>
    <trip id="veh117" type="veh_passenger" depart="54206.45" departLane="best" departSpeed="max" from="-255274250" to="-5026771"/>
    <trip id="veh118" type="veh_passenger" depart="54208.30" departLane="best" departSpeed="max" from="-5197045#1" to="8050332"/>
    <trip id="veh119" type="veh_passenger" depart="54210.15" departLane="best" from="5236308#2" to="5197061#3"/>
    <trip id="veh120" type="veh_passenger" depart="54212.00" departLane="best" departSpeed="max" from="-8050332" to="-37548821#0"/>
    <trip id="veh121" type="veh_passenger" depart="54213.85" departLane="best" departSpeed="max" from="5236305#0" to="311298662#0"/>
    <trip id="veh122" type="veh_passenger" depart="54215.70" departLane="best" departSpeed="max" from="37548821#0" to="gneE4"/>
    <trip id="veh123" type="veh_passenger" depart="54217.55" departLane="best" from="4877788#2" to="-124266855#5"/>
    <trip id="veh124" type="veh_passenger" depart="54219.40" departLane="best" departSpeed="max" from="4935299#0" to="8050332"/>
    <trip id="veh125" type="veh_passenger" depart="54221.25" departLane="best" departSpeed="max" from="-274763814#1" to="-27149243"/>
    <trip id="veh126" type="veh_passenger" depart="54223.10" departLane="best" departSpeed="max" from="-255274250" to="111677671#1"/>
    <trip id="veh127" type="veh_passenger" depart="54224.95" departLane="best" departSpeed="max" from="-5197045#1" to="255274250"/>
    <trip id="veh128" type="veh_passenger" depart="54226.80" departLane="best" departSpeed="max" from="37548821#0" to="-5026771"/>
    <trip id="veh129" type="veh_passenger" depart="54228.65" departLane="best" departSpeed="max" from="26943536#0" to="783907721#1"/>
    <trip id="veh130" type="veh_passenger" depart="54230.50" departLane="best" departSpeed="max" from="5236305#0" to="-26943536#0"/>
    <trip id="veh131" type="veh_passenger" depart="54232.35" departLane="best" departSpeed="max" from="-gneE4" to="-5029408"/>
    <trip id="veh132" type="veh_passenger" depart="54234.20" departLane="best" departSpeed="max" from="-111677671#1" to="4935286#0"/>
    <trip id="veh133" type="veh_passenger" depart="54236.05" departLane="best" departSpeed="max" from="37548821#0" to="-5026771"/>
    <trip id="veh134" type="veh_passenger" depart="54237.90" departLane="best" departSpeed="max" from="5026771" to="111677671#1"/>
    <trip id="veh136" type="veh_passenger" depart="54241.60" departLane="best" departSpeed="max" from="-255274250" to="5197061#3"/>
    <trip id="veh137" type="veh_passenger" depart="54243.45" departLane="best" departSpeed="max" from="8162045" to="111677671#1"/>
    <trip id="veh138" type="veh_passenger" depart="54245.30" departLane="best" departSpeed="max" from="5236305#0" to="24337240#7"/>
    <trip id="veh139" type="veh_passenger" depart="54247.15" departLane="best" departSpeed="max" from="-274763814#1" to="-27149243"/>
    <trip id="veh140" type="veh_passenger" depart="54249.00" departLane="best" departSpeed="max" from="-5197061#3" to="5236308#2"/>
    <trip id="veh141" type="veh_passenger" depart="54250.85" departLane="best" departSpeed="max" from="5029408" to="5197061#3"/>
    <trip id="veh142" type="veh_passenger" depart="54252.70" departLane="best" departSpeed="max" from="-5197045#1" to="-27149243"/>
    <trip id="veh143" type="veh_passenger" depart="54254.55" departLane="best" departSpeed="max" from="5029408" to="5197061#3"/>
    <trip id="veh144" type="veh_passenger" depart="54256.40" departLane="best" departSpeed="max" from="-8050332" to="255274250"/>
    <trip id="veh145" type="veh_passenger" depart="54258.25" departLane="best" departSpeed="max" from="-274763814#1" to="8050332"/>
    <trip id="veh146" type="veh_passenger" depart="54260.10" departLane="best" departSpeed="max" from="5236305#0" to="gneE4"/>
    <trip id="veh147" type="veh_passenger" depart="54261.95" departLane="best" departSpeed="max" from="5029408" to="5197061#3"/>
    <trip id="veh148" type="veh_passenger" depart="54263.80" departLane="best" departSpeed="max" from="-111677671#1" to="4877791"/>
    <trip id="veh149" type="veh_passenger" depart="54265.65" departLane="best" departSpeed="max" from="5029408" to="5197061#3"/>
    <trip id="veh150" type="veh_passenger" depart="54267.50" departLane="best" departSpeed="max" from="5029408" to="-27149243"/>
    <trip id="veh151" type="veh_passenger" depart="54269.35" departLane="best" departSpeed="max" from="5236305#0" to="5197061#3"/>
    <trip id="veh152" type="veh_passenger" depart="54271.20" departLane="best" departSpeed="max" from="-4877791" to="5197045#1"/>
    <trip id="veh154" type="veh_passenger" depart="54274.90" departLane="best" departSpeed="max" from="5029408" to="-5026771"/>
    <trip id="veh155" type="veh_passenger" depart="54276.75" departLane="best" departSpeed="max" from="-111677671#1" to="-37551363"/>
    <trip id="veh156" type="veh_passenger" depart="54278.60" departLane="best" departSpeed="max" from="96687079#0" to="-5029408"/>
    <trip id="veh157" type="veh_passenger" depart="54280.45" departLane="best" departSpeed="max" from="37548821#0" to="-8162045"/>
    <trip id="veh158" type="veh_passenger" depart="54282.30" departLane="best" departSpeed="max" from="96687079#0" to="111677671#1"/>
    <trip id="veh159" type="veh_passenger" depart="54284.15" departLane="best" departSpeed="max" from="8162045" to="-27149243"/>
    <trip id="veh160" type="veh_passenger" depart="54286.00" departLane="best" departSpeed="max" from="96687079#0" to="-37548821#0"/>
    <trip id="veh161" type="veh_passenger" depart="54287.85" departLane="best" departSpeed="max" from="96687079#0" to="-5026771"/>
    <trip id="veh162" type="veh_passenger" depart="54289.70" departLane="best" departSpeed="max" from="-255274250" to="-8162045"/>
    <trip id="veh163" type="veh_passenger" depart="54291.55" departLane="best" departSpeed="max" from="5026771" to="-5029408"/>
    <trip id="veh164" type="veh_passenger" depart="54293.40" departLane="best" departSpeed="max" from="37548821#0" to="-96687079#3"/>
    <trip id="veh165" type="veh_passenger" depart="54295.25" departLane="best" departSpeed="max" from="-8050332" to="120682114#3"/>
    <trip id="veh166" type="veh_passenger" depart="54297.10" departLane="best" departSpeed="max" from="-5197045#1" to="4877785"/>
    <trip id="veh167" type="veh_passenger" depart="54298.95" departLane="best" departSpeed="max" from="-111677671#1" to="8050332"/>
    <trip id="veh168" type="veh_passenger" depart="54300.80" departLane="best" from="26943536#1" to="4877791"/>
    <trip id="veh169" type="veh_passenger" depart="54302.65" departLane="best" departSpeed="max" from="5026771" to="26216780#2"/>
    <trip id="veh170" type="veh_passenger" depart="54304.50" departLane="best" departSpeed="max" from="-8050332" to="-26943536#0"/>
    <trip id="veh171" type="veh_passenger" depart="54306.35" departLane="best" departSpeed="max" from="4935299#0" to="-5236305#0"/>
    <trip id="veh172" type="veh_passenger" depart="54308.20" departLane="best" departSpeed="max" from="5026771" to="-5029408"/>
    <trip id="veh173" type="veh_passenger" depart="54310.05" departLane="best" departSpeed="max" from="-5197061#3" to="-8162045"/>
    <trip id="veh174" type="veh_passenger" depart="54311.90" departLane="best" departSpeed="max" from="-8050332" to="-5029408"/>
    <trip id="veh175" type="veh_passenger" depart="54313.75" departLane="best" departSpeed="max" from="-274763814#1" to="-8162045"/>
    <trip id="veh176" type="veh_passenger" depart="54315.60" departLane="best" departSpeed="max" from="8162045" to="26216780#2"/>
    <trip id="veh177" type="veh_passenger" depart="54317.45" departLane="best" departSpeed="max" from="8162045" to="255274250"/>
    <trip id="veh178" type="veh_passenger" depart="54319.30" departLane="best" departSpeed="max" from="-5197061#3" to="111677671#1"/>
    <trip id="veh179" type="veh_passenger" depart="54321.15" departLane="best" from="-111677669#0" to="-5029408"/>
    <trip id="veh180" type="veh_passenger" depart="54323.00" departLane="best" departSpeed="max" from="-gneE4" to="23359215#0"/>
    <trip id="veh181" type="veh_passenger" depart="54324.85" departLane="best" from="4894991#2" to="-96687079#0"/>
    <trip id="veh182" type="veh_passenger" depart="54326.70" departLane="best" departSpeed="max" from="-gneE4" to="-5026771"/>
    <trip id="veh184" type="veh_passenger" depart="54330.40" departLane="best" departSpeed="max" from="5029408" to="-37548821#0"/>
    <trip id="veh185" type="veh_passenger" depart="54332.25" departLane="best" departSpeed="max" from="-255274250" to="111677671#1"/>
    <trip id="veh186" type="veh_passenger" depart="54334.10" departLane="best" departSpeed="max" from="37548821#0" to="-5236305#0"/>
    <trip id="veh187" type="veh_passenger" depart="54335.95" departLane="best" departSpeed="max" from="5029408" to="4877791"/>
    <trip id="veh188" type="veh_passenger" depart="54337.80" departLane="best" departSpeed="max" from="4935299#0" to="-5026771"/>
    <trip id="veh190" type="veh_passenger" depart="54341.50" departLane="best" from="-502325083" to="-96687079#0"/>
    <trip id="veh191" type="veh_passenger" depart="54343.35" departLane="best" departSpeed="max" from="5236305#0" to="-26943536#0"/>
    <trip id="veh192" type="veh_passenger" depart="54345.20" departLane="best" from="-828195561#0" to="255274250"/>
    <trip id="veh193" type="veh_passenger" depart="54347.05" departLane="best" departSpeed="max" from="-4877791" to="26216780#2"/>
    <trip id="veh194" type="veh_passenger" depart="54348.90" departLane="best" departSpeed="max" from="26943536#0" to="-5026771"/>
    <trip id="veh195" type="veh_passenger" depart="54350.75" departLane="best" from="4894996#2" to="-120682114#2"/>
    <trip id="veh196" type="veh_passenger" depart="54352.60" departLane="best" departSpeed="max" from="5026771" to="4924947#0"/>
    <trip id="veh197" type="veh_passenger" depart="54354.45" departLane="best" departSpeed="max" from="-255274250" to="-8162045"/>
    <trip id="veh198" type="veh_passenger" depart="54356.30" departLane="best" from="-311298662#0" to="8050332"/>
    <trip id="veh199" type="veh_passenger" depart="54358.15" departLane="best" departSpeed="max" from="-5197045#1" to="5197061#3"/>
    <trip id="veh201" type="veh_passenger" depart="54361.85" departLane="best" departSpeed="max" from="4935299#0" to="gneE4"/>
    <trip id="veh202" type="veh_passenger" depart="54363.70" departLane="best" from="311298662#0" to="8050332"/>
    <trip id="veh203" type="veh_passenger" depart="54365.55" departLane="best" departSpeed="max" from="8162045" to="255274250"/>
    <trip id="veh204" type="veh_passenger" depart="54367.40" departLane="best" departSpeed="max" from="5026771" to="-96687079#0"/>
    <trip id="veh205" type="veh_passenger" depart="54369.25" departLane="best" departSpeed="max" from="5236305#0" to="111677671#1"/>
    <trip id="veh206" type="veh_passenger" depart="54371.10" departLane="best" departSpeed="max" from="8162045" to="4877791"/>
    <trip id="veh208" type="veh_passenger" depart="54374.80" departLane="best" from="-5057605#1" to="255274250"/>
    <trip id="veh209" type="veh_passenger" depart="54376.65" departLane="best" departSpeed="max" from="5026771" to="111677671#1"/>
    <trip id="veh210" type="veh_passenger" depart="54378.50" departLane="best" departSpeed="max" from="37548821#0" to="-5029408"/>
    <trip id="veh211" type="veh_passenger" depart="54380.35" departLane="best" departSpeed="max" from="-255274250" to="-5029408"/>
    <trip id="veh212" type="veh_passenger" depart="54382.20" departLane="best" departSpeed="max" from="-5197045#1" to="-5029408"/>
    <trip id="veh213" type="veh_passenger" depart="54384.05" departLane="best" departSpeed="max" from="27149243" to="-37548821#0"/>
    <trip id="veh214" type="veh_passenger" depart="54385.90" departLane="best" departSpeed="max" from="-4877791" to="26216780#2"/>
    <trip id="veh215" type="veh_passenger" depart="54387.75" departLane="best" departSpeed="max" from="4935299#0" to="-26943536#0"/>
    <trip id="veh216" type="veh_passenger" depart="54389.60" departLane="best" departSpeed="max" from="-8050332" to="111677671#1"/>
    <trip id="veh217" type="veh_passenger" depart="54391.45" departLane="best" from="-876057378#4" to="-4970256#4"/>
    <trip id="veh218" type="veh_passenger" depart="54393.30" departLane="best" from="-gneE0" to="782714971#3"/>
    <trip id="veh219" type="veh_passenger" depart="54395.15" departLane="best" departSpeed="max" from="27149243" to="26216780#2"/>
    <trip id="veh220" type="veh_passenger" depart="54397.00" departLane="best" departSpeed="max" from="5236305#0" to="4877791"/>
    <trip id="veh221" type="veh_passenger" depart="54398.85" departLane="best" departSpeed="max" from="-5197061#3" to="4877791"/>
    <trip id="veh222" type="veh_passenger" depart="54400.70" departLane="best" departSpeed="max" from="5236305#0" to="8050332"/>
    <trip id="veh223" type="veh_passenger" depart="54402.55" departLane="best" from="-gneE0" to="4877791"/>
    <trip id="veh224" type="veh_passenger" depart="54404.40" departLane="best" departSpeed="max" from="27149243" to="255274250"/>
    <trip id="veh225" type="veh_passenger" depart="54406.25" departLane="best" departSpeed="max" from="-4877791" to="-5026771"/>
    <trip id="veh227" type="veh_passenger" depart="54409.95" departLane="best" departSpeed="max" from="-5197061#3" to="26216780#2"/>
    <trip id="veh228" type="veh_passenger" depart="54411.80" departLane="best" departSpeed="max" from="-8050332" to="-37548821#0"/>
    <trip id="veh231" type="veh_passenger" depart="54417.35" departLane="best" departSpeed="max" from="-8050332" to="111677671#1"/>
    <trip id="veh232" type="veh_passenger" depart="54419.20" departLane="best" departSpeed="max" from="-111677671#1" to="26216780#2"/>
    <trip id="veh233" type="veh_passenger" depart="54421.05" departLane="best" departSpeed="max" from="-274763814#1" to="-96687079#0"/>
    <trip id="veh234" type="veh_passenger" depart="54422.90" departLane="best" departSpeed="max" from="-111677671#1" to="-5236305#0"/>
    <trip id="veh235" type="veh_passenger" depart="54424.75" departLane="best" departSpeed="max" from="-4877791" to="-5197062#0"/>
    <trip id="veh236" type="veh_passenger" depart="54426.60" departLane="best" departSpeed="max" from="5026771" to="5197045#1"/>
    <trip id="veh237" type="veh_passenger" depart="54428.45" departLane="best" departSpeed="max" from="-5197045#1" to="-26943536#0"/>